REMARK WARNING: 32 MAX_TORS EXCEEDED!!!
REMARK  84 active torsions:
REMARK  status: ('A' for Active; 'I' for Inactive)
REMARK    1  A    between atoms: C6_2  and  C5_55 
REMARK    2  A    between atoms: O3_3  and  C3_80 
REMARK    3  A    between atoms: C4_4  and  O4_127 
REMARK    4  A    between atoms: C1_6  and  O4_106 
REMARK    5  A    between atoms: C2_7  and  O2_16 
REMARK    6  A    between atoms: C5_8  and  C6_165 
REMARK    7  A    between atoms: O4_9  and  C4_40 
REMARK    8  A    between atoms: O4_9  and  C1_34 
REMARK    9  A    between atoms: O4_10  and  C4_98 
REMARK   10  A    between atoms: O4_10  and  C1_142 
REMARK   11  A    between atoms: O4_11  and  C4_139 
REMARK   12  A    between atoms: O4_11  and  C1_38 
REMARK   13  A    between atoms: O2S_13  and  S1_123 
REMARK   14  A    between atoms: O3_15  and  C3_22 
REMARK   15  A    between atoms: O2_16  and  S_19 
REMARK   16  A    between atoms: C4_18  and  O4_92 
REMARK   17  A    between atoms: C6_21  and  C5_175 
REMARK   18  A    between atoms: O4_23  and  C4_65 
REMARK   19  A    between atoms: O4_23  and  C1_101 
REMARK   20  A    between atoms: O1S_24  and  S1_123 
REMARK   21  A    between atoms: C6_25  and  C5_136 
REMARK   22  A    between atoms: C6_25  and  O6_148 
REMARK   23  A    between atoms: C6_27  and  C5_162 
REMARK   24  A    between atoms: C6_27  and  O6_103 
REMARK   25  A    between atoms: C3_30  and  O3_69 
REMARK   26  A    between atoms: N_31  and  C2_117 
REMARK   27  A    between atoms: N_31  and  S1_45 
REMARK   28  A    between atoms: S_36  and  O2_102 
REMARK   29  A    between atoms: C3_37  and  O3_54 
REMARK   30  A    between atoms: O3_39  and  C3_149 
REMARK   31  A    between atoms: O6_42  and  C6_165 
REMARK   32  A    between atoms: O6_42  and  S2_44 
REMARK   33  A    between atoms: C4_43  and  O4_106 
REMARK   34  A    between atoms: S1_45  and  O1S_174 
REMARK   35  A    between atoms: S1_45  and  O2S_104 
REMARK   36  A    between atoms: S1_45  and  O3S_96 
REMARK   37  A    between atoms: O4_46  and  C4_91 
REMARK   38  A    between atoms: O4_46  and  C1_143 
REMARK   39  A    between atoms: S1_47  and  N_137 
REMARK   40  A    between atoms: S1_47  and  O1S_120 
REMARK   41  A    between atoms: S1_47  and  O2S_125 
REMARK   42  A    between atoms: S1_47  and  O3S_86 
REMARK   43  A    between atoms: O1_50  and  C1_107 
REMARK   44  A    between atoms: O2S_51  and  S1_147 
REMARK   45  A    between atoms: N_52  and  C2_62 
REMARK   46  A    between atoms: N_52  and  S1_147 
REMARK   47  A    between atoms: C5_53  and  C6_128 
REMARK   48  A    between atoms: C2_56  and  O2_140 
REMARK   49  A    between atoms: C6_57  and  C5_95 
REMARK   50  A    between atoms: C6_57  and  O6_146 
REMARK   51  A    between atoms: S_59  and  O2_140 
REMARK   52  A    between atoms: C1_61  and  O4_92 
REMARK   53  A    between atoms: O1S_63  and  S1_132 
REMARK   54  A    between atoms: C1_64  and  O4_127 
REMARK   55  A    between atoms: O4_66  and  C4_116 
REMARK   56  A    between atoms: O4_66  and  C1_141 
REMARK   57  A    between atoms: S2_68  and  O6_146 
REMARK   58  A    between atoms: O3_73  and  C3_153 
REMARK   59  A    between atoms: C6_74  and  C5_82 
REMARK   60  A    between atoms: C6_74  and  O6_158 
REMARK   61  A    between atoms: O1S_75  and  S1_147 
REMARK   62  A    between atoms: C5_76  and  C6_164 
REMARK   63  A    between atoms: O3S_81  and  S1_147 
REMARK   64  A    between atoms: O2S_83  and  S1_132 
REMARK   65  A    between atoms: S_84  and  O2_85 
REMARK   66  A    between atoms: O2_85  and  C2_111 
REMARK   67  A    between atoms: O3_89  and  C3_161 
REMARK   68  A    between atoms: C3_93  and  O3_172 
REMARK   69  A    between atoms: C6_94  and  C5_109 
REMARK   70  A    between atoms: C3_97  and  O3_167 
REMARK   71  A    between atoms: O2_102  and  C2_170 
REMARK   72  A    between atoms: O6_103  and  S2_155 
REMARK   73  A    between atoms: S_105  and  O2_113 
REMARK   74  A    between atoms: C2_112  and  N_137 
REMARK   75  A    between atoms: O2_113  and  C2_168 
REMARK   76  A    between atoms: O3S_115  and  S1_132 
REMARK   77  A    between atoms: S1_123  and  N_124 
REMARK   78  A    between atoms: S1_123  and  O3S_152 
REMARK   79  A    between atoms: N_124  and  C2_166 
REMARK   80  A    between atoms: S2_129  and  O6_158 
REMARK   81  A    between atoms: C2_131  and  N_134 
REMARK   82  A    between atoms: S1_132  and  N_134 
REMARK   83  A    between atoms: C3_133  and  O3_159 
REMARK   84  A    between atoms: O6_148  and  S2_173 
ROOT
ATOM      1  C4  SGN d 206      24.044 122.890   8.313  0.00  0.00     0.186 C 
ATOM      2  O5  SGN d 206      23.500 123.684   6.028  0.00  0.00    -0.349 OA
ATOM      3  C1  SGN d 206      23.137 124.978   6.540  0.00  0.00     0.282 C 
ATOM      4  C5  SGN d 206      24.570 123.086   6.851  0.00  0.00     0.181 C 
ATOM      5  C3  SGN d 206      23.580 124.249   8.878  0.00  0.00     0.173 C 
ATOM      6  C2  SGN d 206      22.465 124.825   7.960  0.00  0.00     0.157 C 
ENDROOT
BRANCH   1   7
ATOM      7  O4  SGN d 206      25.097 122.418   9.131  0.00  0.00    -0.348 OA
BRANCH   7   8
ATOM      8  C1  IDS d 207      25.134 121.086   9.484  0.00  0.00     0.294 C 
ATOM      9  C2  IDS d 207      26.588 120.847   9.969  0.00  0.00     0.231 C 
ATOM     10  C3  IDS d 207      26.647 119.801  11.056  0.00  0.00     0.185 C 
ATOM     11  C4  IDS d 207      25.697 120.080  12.252  0.00  0.00     0.195 C 
ATOM     12  C5  IDS d 207      24.628 121.149  11.838  0.00  0.00     0.257 C 
ATOM     13  O5  IDS d 207      24.181 120.814  10.503  0.00  0.00    -0.340 OA
BRANCH   9  14
ATOM     14  O2  IDS d 207      27.411 120.378   8.882  0.00  0.00    -0.244 OA
BRANCH  14  15
ATOM     15  S   IDS d 207      27.311 118.959   8.110  0.00  0.00     0.252 S 
ATOM     16  O2S IDS d 207      25.920 118.699   7.843  0.00  0.00    -0.572 OA
ATOM     17  O1S IDS d 207      27.873 117.991   9.038  0.00  0.00    -0.572 OA
ATOM     18  O3S IDS d 207      28.101 119.103   6.906  0.00  0.00    -0.572 OA
ENDBRANCH  14  15
ENDBRANCH   9  14
BRANCH  10  19
ATOM     19  O3  IDS d 207      27.991 119.686  11.505  0.00  0.00    -0.390 OA
ATOM     20  H   IDS d 207      28.278 120.531  11.886  0.00  0.00     0.210 HD
ENDBRANCH  10  19
BRANCH  11  21
ATOM     21  O4  IDS d 207      24.981 118.908  12.397  0.00  0.00    -0.348 OA
BRANCH  21  22
ATOM     22  C1  SGN d 208      25.174 118.083  13.476  0.00  0.00     0.282 C 
ATOM     23  O5  SGN d 208      23.939 118.037  14.186  0.00  0.00    -0.349 OA
ATOM     24  C5  SGN d 208      22.824 117.609  13.334  0.00  0.00     0.181 C 
ATOM     25  C4  SGN d 208      23.111 116.163  12.795  0.00  0.00     0.186 C 
ATOM     26  C3  SGN d 208      24.417 116.199  12.003  0.00  0.00     0.173 C 
ATOM     27  C2  SGN d 208      25.552 116.666  12.926  0.00  0.00     0.157 C 
BRANCH  24  28
ATOM     28  C6  SGN d 208      21.537 117.719  14.164  0.00  0.00     0.227 C 
BRANCH  28  29
ATOM     29  O6  SGN d 208      21.858 117.680  15.520  0.00  0.00    -0.254 OA
BRANCH  29  30
ATOM     30  S2  SGN d 208      21.538 116.534  16.512  0.00  0.00     0.251 S 
ATOM     31  O4S SGN d 208      21.554 115.296  15.754  0.00  0.00    -0.572 OA
ATOM     32  O6S SGN d 208      20.235 116.841  17.074  0.00  0.00    -0.572 OA
ATOM     33  O5S SGN d 208      22.604 116.613  17.491  0.00  0.00    -0.572 OA
ENDBRANCH  29  30
ENDBRANCH  28  29
ENDBRANCH  24  28
BRANCH  25  34
ATOM     34  O4  SGN d 208      22.080 115.747  11.910  0.00  0.00    -0.348 OA
BRANCH  34  35
ATOM     35  C1  IDS d 209      21.311 114.658  12.275  0.00  0.00     0.294 C 
ATOM     36  O5  IDS d 209      22.089 113.460  12.335  0.00  0.00    -0.340 OA
ATOM     37  C5  IDS d 209      22.166 112.699  11.102  0.00  0.00     0.257 C 
ATOM     38  C4  IDS d 209      20.734 112.103  10.790  0.00  0.00     0.195 C 
ATOM     39  C3  IDS d 209      19.645 113.156  11.112  0.00  0.00     0.185 C 
ATOM     40  C2  IDS d 209      20.180 114.571  11.235  0.00  0.00     0.231 C 
BRANCH  37  41
ATOM     41  C6  IDS d 209      23.266 111.630  11.244  0.00  0.00     0.206 C 
ATOM     42  O61 IDS d 209      23.573 110.919  10.304  0.00  0.00    -0.646 OA
ATOM     43  O62 IDS d 209      23.847 111.457  12.298  0.00  0.00    -0.646 OA
ENDBRANCH  37  41
BRANCH  38  44
ATOM     44  O4  IDS d 209      20.544 111.034  11.714  0.00  0.00    -0.348 OA
BRANCH  44  45
ATOM     45  C1  SGN d 210      19.728 109.920  11.399  0.00  0.00     0.282 C 
ATOM     46  C2  SGN d 210      18.352 110.002  12.194  0.00  0.00     0.157 C 
ATOM     47  C3  SGN d 210      18.631 110.016  13.704  0.00  0.00     0.173 C 
ATOM     48  C4  SGN d 210      19.353 108.744  14.052  0.00  0.00     0.186 C 
ATOM     49  C5  SGN d 210      20.713 108.688  13.237  0.00  0.00     0.181 C 
ATOM     50  O5  SGN d 210      20.437 108.746  11.790  0.00  0.00    -0.349 OA
BRANCH  46  51
ATOM     51  N   SGN d 210      17.623 111.211  11.813  0.00  0.00    -0.210 NA
ATOM     52  H   SGN d 210      18.227 111.730  11.176  0.00  0.00     0.140 HD
BRANCH  51  53
ATOM     53  S1  SGN d 210      16.155 111.094  11.083  0.00  0.00     0.156 S 
BRANCH  53  54
ATOM     54  O2S SGN d 210      15.636 109.773  11.378  0.00  0.00    -0.296 OA
ATOM     55  H   SGN d 210      16.190 109.104  10.946  0.00  0.00     0.231 HD
ENDBRANCH  53  54
BRANCH  53  56
ATOM     56  O1S SGN d 210      16.354 111.323   9.667  0.00  0.00    -0.296 OA
ATOM     57  H   SGN d 210      16.883 110.601   9.294  0.00  0.00     0.231 HD
ENDBRANCH  53  56
BRANCH  53  58
ATOM     58  O3S SGN d 210      15.370 112.140  11.700  0.00  0.00    -0.296 OA
ATOM     59  H   SGN d 210      15.261 111.948  12.645  0.00  0.00     0.231 HD
ENDBRANCH  53  58
ENDBRANCH  51  53
ENDBRANCH  46  51
BRANCH  47  60
ATOM     60  O3  SGN d 210      17.417 110.068  14.422  0.00  0.00    -0.391 OA
ATOM     61  H   SGN d 210      16.946 110.887  14.202  0.00  0.00     0.210 HD
ENDBRANCH  47  60
BRANCH  48  62
ATOM     62  O4  SGN d 210      19.572 108.751  15.466  0.00  0.00    -0.348 OA
BRANCH  62  63
ATOM     63  C1  IDS d 211      18.804 107.825  16.190  0.00  0.00     0.294 C 
ATOM     64  C2  IDS d 211      19.709 107.031  17.094  0.00  0.00     0.228 C 
ATOM     65  C3  IDS d 211      18.961 105.783  17.454  0.00  0.00     0.156 C 
ATOM     66  C4  IDS d 211      17.616 106.111  18.159  0.00  0.00     0.077 C 
ATOM     67  C5  IDS d 211      17.205 107.672  18.144  0.00  0.00     0.228 C 
ATOM     68  O5  IDS d 211      17.728 108.425  16.935  0.00  0.00    -0.343 OA
BRANCH  64  69
ATOM     69  O2  IDS d 211      20.892 106.655  16.391  0.00  0.00    -0.244 OA
BRANCH  69  70
ATOM     70  S   IDS d 211      22.367 106.468  16.908  0.00  0.00     0.252 S 
ATOM     71  O1S IDS d 211      22.925 105.460  16.019  0.00  0.00    -0.572 OA
ATOM     72  O2S IDS d 211      23.048 107.746  16.784  0.00  0.00    -0.572 OA
ATOM     73  O3S IDS d 211      22.252 106.008  18.273  0.00  0.00    -0.572 OA
ENDBRANCH  69  70
ENDBRANCH  64  69
BRANCH  65  74
ATOM     74  O3  IDS d 211      19.749 105.001  18.319  0.00  0.00    -0.393 OA
ATOM     75  H   IDS d 211      20.592 104.791  17.887  0.00  0.00     0.210 HD
ENDBRANCH  65  74
BRANCH  67  76
ATOM     76  C6  IDS d 211      15.672 107.882  18.267  0.00  0.00     0.203 C 
ATOM     77  O61 IDS d 211      14.888 107.011  17.895  0.00  0.00    -0.646 OA
ATOM     78  O62 IDS d 211      15.199 108.902  18.751  0.00  0.00    -0.646 OA
ENDBRANCH  67  76
ENDBRANCH  62  63
ENDBRANCH  48  62
BRANCH  49  79
ATOM     79  C6  SGN d 210      21.555 107.414  13.479  0.00  0.00     0.227 C 
BRANCH  79  80
ATOM     80  O6  SGN d 210      20.868 106.296  12.978  0.00  0.00    -0.254 OA
BRANCH  80  81
ATOM     81  S2  SGN d 210      21.243 105.456  11.742  0.00  0.00     0.251 S 
ATOM     82  O6S SGN d 210      20.853 106.236  10.600  0.00  0.00    -0.572 OA
ATOM     83  O4S SGN d 210      22.662 105.225  11.810  0.00  0.00    -0.572 OA
ATOM     84  O5S SGN d 210      20.463 104.253  11.885  0.00  0.00    -0.572 OA
ENDBRANCH  80  81
ENDBRANCH  79  80
ENDBRANCH  49  79
ENDBRANCH  44  45
ENDBRANCH  38  44
BRANCH  39  85
ATOM     85  O3  IDS d 209      18.637 113.119  10.106  0.00  0.00    -0.390 OA
ATOM     86  H   IDS d 209      19.026 113.358   9.250  0.00  0.00     0.210 HD
ENDBRANCH  39  85
BRANCH  40  87
ATOM     87  O2  IDS d 209      19.082 115.416  11.641  0.00  0.00    -0.244 OA
BRANCH  87  88
ATOM     88  S   IDS d 209      18.097 115.260  12.927  0.00  0.00     0.252 S 
ATOM     89  O3S IDS d 209      18.778 114.386  13.885  0.00  0.00    -0.572 OA
ATOM     90  O1S IDS d 209      17.949 116.613  13.421  0.00  0.00    -0.572 OA
ATOM     91  O2S IDS d 209      16.843 114.714  12.453  0.00  0.00    -0.572 OA
ENDBRANCH  87  88
ENDBRANCH  40  87
ENDBRANCH  34  35
ENDBRANCH  25  34
BRANCH  26  92
ATOM     92  O3  SGN d 208      24.710 114.899  11.513  0.00  0.00    -0.391 OA
ATOM     93  H   SGN d 208      24.798 114.285  12.258  0.00  0.00     0.210 HD
ENDBRANCH  26  92
BRANCH  27  94
ATOM     94  N   SGN d 208      26.820 116.736  12.146  0.00  0.00    -0.210 NA
ATOM     95  H   SGN d 208      26.879 115.866  11.617  0.00  0.00     0.140 HD
BRANCH  94  96
ATOM     96  S1  SGN d 208      28.289 116.932  12.882  0.00  0.00     0.156 S 
BRANCH  96  97
ATOM     97  O2S SGN d 208      29.246 117.066  11.791  0.00  0.00    -0.296 OA
ATOM     98  H   SGN d 208      29.286 116.235  11.292  0.00  0.00     0.231 HD
ENDBRANCH  96  97
BRANCH  96  99
ATOM     99  O1S SGN d 208      28.523 115.782  13.728  0.00  0.00    -0.296 OA
ATOM    100  H   SGN d 208      28.589 114.985  13.179  0.00  0.00     0.231 HD
ENDBRANCH  96  99
BRANCH  96 101
ATOM    101  O3S SGN d 208      28.184 118.147  13.667  0.00  0.00    -0.296 OA
ATOM    102  H   SGN d 208      29.024 118.311  14.123  0.00  0.00     0.231 HD
ENDBRANCH  96 101
ENDBRANCH  94  96
ENDBRANCH  27  94
ENDBRANCH  21  22
ENDBRANCH  11  21
BRANCH  12 103
ATOM    103  C6  IDS d 207      23.410 121.210  12.783  0.00  0.00     0.206 C 
ATOM    104  O61 IDS d 207      22.391 120.565  12.532  0.00  0.00    -0.646 OA
ATOM    105  O62 IDS d 207      23.422 121.885  13.795  0.00  0.00    -0.646 OA
ENDBRANCH  12 103
ENDBRANCH   7   8
ENDBRANCH   1   7
BRANCH   5 106
ATOM    106  O3  SGN d 206      23.075 124.063  10.193  0.00  0.00    -0.391 OA
ATOM    107  H   SGN d 206      22.329 123.444  10.168  0.00  0.00     0.210 HD
ENDBRANCH   5 106
BRANCH   4 108
ATOM    108  C6  SGN d 206      25.019 121.773   6.196  0.00  0.00     0.227 C 
BRANCH 108 109
ATOM    109  O6  SGN d 206      23.896 121.049   5.787  0.00  0.00    -0.254 OA
BRANCH 109 110
ATOM    110  S2  SGN d 206      23.573 120.601   4.325  0.00  0.00     0.251 S 
ATOM    111  O6S SGN d 206      23.661 121.803   3.512  0.00  0.00    -0.572 OA
ATOM    112  O4S SGN d 206      24.545 119.582   3.961  0.00  0.00    -0.572 OA
ATOM    113  O5S SGN d 206      22.232 120.087   4.395  0.00  0.00    -0.572 OA
ENDBRANCH 109 110
ENDBRANCH 108 109
ENDBRANCH   4 108
BRANCH   6 114
ATOM    114  N   SGN d 206      22.054 126.164   8.489  0.00  0.00    -0.210 NA
ATOM    115  H   SGN d 206      22.503 126.857   7.891  0.00  0.00     0.140 HD
BRANCH 114 116
ATOM    116  S1  SGN d 206      20.454 126.616   8.606  0.00  0.00     0.156 S 
BRANCH 116 117
ATOM    117  O1S SGN d 206      19.640 125.655   7.880  0.00  0.00    -0.296 OA
ATOM    118  H   SGN d 206      19.689 124.792   8.320  0.00  0.00     0.231 HD
ENDBRANCH 116 117
BRANCH 116 119
ATOM    119  O2S SGN d 206      20.157 126.671  10.047  0.00  0.00    -0.296 OA
ATOM    120  H   SGN d 206      20.197 125.776  10.420  0.00  0.00     0.231 HD
ENDBRANCH 116 119
BRANCH 116 121
ATOM    121  O3S SGN d 206      20.411 127.931   7.981  0.00  0.00    -0.296 OA
ATOM    122  H   SGN d 206      20.612 127.847   7.036  0.00  0.00     0.231 HD
ENDBRANCH 116 121
ENDBRANCH 114 116
ENDBRANCH   6 114
BRANCH   3 123
ATOM    123  O4  IDS d 205      24.382 125.613   6.763  0.00  0.00    -0.348 OA
BRANCH 123 124
ATOM    124  C4  IDS d 205      24.643 126.939   6.522  0.00  0.00     0.195 C 
ATOM    125  C3  IDS d 205      24.625 127.629   7.907  0.00  0.00     0.185 C 
ATOM    126  C2  IDS d 205      25.829 128.540   8.192  0.00  0.00     0.231 C 
ATOM    127  C1  IDS d 205      27.179 127.788   8.012  0.00  0.00     0.294 C 
ATOM    128  O5  IDS d 205      26.994 126.667   7.132  0.00  0.00    -0.340 OA
ATOM    129  C5  IDS d 205      26.106 126.920   5.986  0.00  0.00     0.257 C 
BRANCH 125 130
ATOM    130  O3  IDS d 205      23.432 128.377   8.041  0.00  0.00    -0.390 OA
ATOM    131  H   IDS d 205      23.416 129.082   7.375  0.00  0.00     0.210 HD
ENDBRANCH 125 130
BRANCH 126 132
ATOM    132  O2  IDS d 205      25.687 128.994   9.539  0.00  0.00    -0.244 OA
BRANCH 132 133
ATOM    133  S   IDS d 205      25.106 128.200  10.825  0.00  0.00     0.252 S 
ATOM    134  O3S IDS d 205      25.713 128.855  11.960  0.00  0.00    -0.572 OA
ATOM    135  O1S IDS d 205      23.664 128.389  10.768  0.00  0.00    -0.572 OA
ATOM    136  O2S IDS d 205      25.477 126.802  10.706  0.00  0.00    -0.572 OA
ENDBRANCH 132 133
ENDBRANCH 126 132
BRANCH 127 137
ATOM    137  O4  SGN d 204      28.099 128.759   7.479  0.00  0.00    -0.348 OA
BRANCH 137 138
ATOM    138  C4  SGN d 204      29.516 128.442   7.199  0.00  0.00     0.186 C 
ATOM    139  C3  SGN d 204      29.649 127.635   5.857  0.00  0.00     0.173 C 
ATOM    140  C2  SGN d 204      31.129 127.380   5.585  0.00  0.00     0.157 C 
ATOM    141  C1  SGN d 204      31.826 128.752   5.434  0.00  0.00     0.282 C 
ATOM    142  O5  SGN d 204      31.659 129.536   6.650  0.00  0.00    -0.349 OA
ATOM    143  C5  SGN d 204      30.285 129.789   7.013  0.00  0.00     0.181 C 
BRANCH 139 144
ATOM    144  O3  SGN d 204      29.027 126.399   5.990  0.00  0.00    -0.391 OA
ATOM    145  H   SGN d 204      29.111 125.904   5.160  0.00  0.00     0.210 HD
ENDBRANCH 139 144
BRANCH 140 146
ATOM    146  N   SGN d 204      31.306 126.595   4.330  0.00  0.00    -0.210 NA
ATOM    147  H   SGN d 204      31.503 127.262   3.584  0.00  0.00     0.140 HD
BRANCH 146 148
ATOM    148  S1  SGN d 204      32.494 125.434   4.275  0.00  0.00     0.156 S 
BRANCH 148 149
ATOM    149  O1S SGN d 204      33.701 126.020   4.830  0.00  0.00    -0.296 OA
ATOM    150  H   SGN d 204      34.416 125.365   4.812  0.00  0.00     0.231 HD
ENDBRANCH 148 149
BRANCH 148 151
ATOM    151  O2S SGN d 204      32.000 124.316   5.049  0.00  0.00    -0.296 OA
ATOM    152  H   SGN d 204      32.660 123.606   5.049  0.00  0.00     0.231 HD
ENDBRANCH 148 151
BRANCH 148 153
ATOM    153  O3S SGN d 204      32.650 125.098   2.862  0.00  0.00    -0.296 OA
ATOM    154  H   SGN d 204      33.336 124.419   2.765  0.00  0.00     0.231 HD
ENDBRANCH 148 153
ENDBRANCH 146 148
ENDBRANCH 140 146
BRANCH 141 155
ATOM    155  O4  IDS d 203      31.260 129.443   4.302  0.00  0.00    -0.348 OA
BRANCH 155 156
ATOM    156  C4  IDS d 203      32.016 130.509   3.713  0.00  0.00     0.195 C 
ATOM    157  C5  IDS d 203      31.038 131.677   3.320  0.00  0.00     0.257 C 
ATOM    158  O5  IDS d 203      30.160 131.258   2.241  0.00  0.00    -0.340 OA
ATOM    159  C1  IDS d 203      30.807 130.990   0.981  0.00  0.00     0.294 C 
ATOM    160  C2  IDS d 203      31.831 129.837   1.179  0.00  0.00     0.231 C 
ATOM    161  C3  IDS d 203      32.756 129.972   2.445  0.00  0.00     0.185 C 
BRANCH 157 162
ATOM    162  C6  IDS d 203      30.213 132.288   4.472  0.00  0.00     0.206 C 
ATOM    163  O61 IDS d 203      29.010 132.091   4.583  0.00  0.00    -0.646 OA
ATOM    164  O62 IDS d 203      30.754 132.989   5.311  0.00  0.00    -0.646 OA
ENDBRANCH 157 162
BRANCH 159 165
ATOM    165  O4  SGN d 202      31.477 132.118   0.408  0.00  0.00    -0.348 OA
BRANCH 165 166
ATOM    166  C4  SGN d 202      30.697 133.122  -0.302  0.00  0.00     0.186 C 
ATOM    167  C5  SGN d 202      30.948 133.022  -1.852  0.00  0.00     0.181 C 
ATOM    168  O5  SGN d 202      30.196 134.063  -2.560  0.00  0.00    -0.350 OA
ATOM    169  C1  SGN d 202      30.481 135.420  -2.170  0.00  0.00     0.278 C 
ATOM    170  C2  SGN d 202      30.280 135.581  -0.621  0.00  0.00     0.157 C 
ATOM    171  C3  SGN d 202      31.151 134.536   0.153  0.00  0.00     0.173 C 
BRANCH 167 172
ATOM    172  C6  SGN d 202      30.490 131.666  -2.450  0.00  0.00     0.227 C 
BRANCH 172 173
ATOM    173  O6  SGN d 202      29.076 131.613  -2.239  0.00  0.00    -0.254 OA
BRANCH 173 174
ATOM    174  S2  SGN d 202      28.012 130.500  -2.604  0.00  0.00     0.251 S 
ATOM    175  O4S SGN d 202      28.399 129.305  -1.885  0.00  0.00    -0.572 OA
ATOM    176  O5S SGN d 202      26.740 131.037  -2.137  0.00  0.00    -0.572 OA
ATOM    177  O6S SGN d 202      28.049 130.346  -4.048  0.00  0.00    -0.572 OA
ENDBRANCH 173 174
ENDBRANCH 172 173
ENDBRANCH 167 172
BRANCH 169 178
ATOM    178  O1  SGN d 202      31.775 135.797  -2.592  0.00  0.00    -0.369 OA
ATOM    179  H   SGN d 202      31.950 136.712  -2.321  0.00  0.00     0.212 HD
ENDBRANCH 169 178
BRANCH 170 180
ATOM    180  N   SGN d 202      30.617 136.985  -0.237  0.00  0.00    -0.210 NA
ATOM    181  H   SGN d 202      30.946 136.951   0.728  0.00  0.00     0.140 HD
BRANCH 180 182
ATOM    182  S1  SGN d 202      29.465 138.199  -0.304  0.00  0.00     0.156 S 
BRANCH 182 183
ATOM    183  O1S SGN d 202      28.964 138.306  -1.658  0.00  0.00    -0.296 OA
ATOM    184  H   SGN d 202      28.490 137.493  -1.893  0.00  0.00     0.231 HD
ENDBRANCH 182 183
BRANCH 182 185
ATOM    185  O2S SGN d 202      28.427 137.842   0.648  0.00  0.00    -0.296 OA
ATOM    186  H   SGN d 202      27.974 137.039   0.346  0.00  0.00     0.231 HD
ENDBRANCH 182 185
BRANCH 182 187
ATOM    187  O3S SGN d 202      30.180 139.391   0.089  0.00  0.00    -0.296 OA
ATOM    188  H   SGN d 202      30.861 139.592  -0.572  0.00  0.00     0.231 HD
ENDBRANCH 182 187
ENDBRANCH 180 182
ENDBRANCH 170 180
BRANCH 171 189
ATOM    189  O3  SGN d 202      30.936 134.683   1.550  0.00  0.00    -0.391 OA
ATOM    190  H   SGN d 202      31.476 134.036   2.030  0.00  0.00     0.210 HD
ENDBRANCH 171 189
ENDBRANCH 165 166
ENDBRANCH 159 165
BRANCH 160 191
ATOM    191  O2  IDS d 203      31.070 128.641   1.265  0.00  0.00    -0.244 OA
BRANCH 191 192
ATOM    192  S   IDS d 203      31.032 127.441   0.250  0.00  0.00     0.252 S 
ATOM    193  O1S IDS d 203      32.380 126.915   0.185  0.00  0.00    -0.572 OA
ATOM    194  O2S IDS d 203      30.080 126.504   0.815  0.00  0.00    -0.572 OA
ATOM    195  O3S IDS d 203      30.591 127.983  -1.004  0.00  0.00    -0.572 OA
ENDBRANCH 191 192
ENDBRANCH 160 191
BRANCH 161 196
ATOM    196  O3  IDS d 203      33.820 130.864   2.140  0.00  0.00    -0.390 OA
ATOM    197  H   IDS d 203      34.292 130.547   1.354  0.00  0.00     0.210 HD
ENDBRANCH 161 196
ENDBRANCH 155 156
ENDBRANCH 141 155
BRANCH 143 198
ATOM    198  C6  SGN d 204      30.316 130.685   8.258  0.00  0.00     0.227 C 
BRANCH 198 199
ATOM    199  O6  SGN d 204      30.186 129.880   9.409  0.00  0.00    -0.254 OA
BRANCH 199 200
ATOM    200  S2  SGN d 204      29.991 130.355  10.906  0.00  0.00     0.251 S 
ATOM    201  O6S SGN d 204      30.601 131.678  11.000  0.00  0.00    -0.572 OA
ATOM    202  O4S SGN d 204      28.560 130.365  11.177  0.00  0.00    -0.572 OA
ATOM    203  O5S SGN d 204      30.708 129.355  11.689  0.00  0.00    -0.572 OA
ENDBRANCH 199 200
ENDBRANCH 198 199
ENDBRANCH 143 198
ENDBRANCH 137 138
ENDBRANCH 127 137
BRANCH 129 204
ATOM    204  C6  IDS d 205      26.351 125.836   4.880  0.00  0.00     0.206 C 
ATOM    205  O61 IDS d 205      26.956 124.794   5.143  0.00  0.00    -0.646 OA
ATOM    206  O62 IDS d 205      25.947 125.982   3.740  0.00  0.00    -0.646 OA
ENDBRANCH 129 204
ENDBRANCH 123 124
ENDBRANCH   3 123
TORSDOF 84
