REMARK  0 active torsions:
REMARK  status: ('A' for Active; 'I' for Inactive)
REMARK       I    between atoms: C6_2  and  C5_55 
REMARK       I    between atoms: O3_3  and  C3_80 
REMARK       I    between atoms: C4_4  and  O4_127 
REMARK       I    between atoms: C1_6  and  O4_106 
REMARK       I    between atoms: C2_7  and  O2_16 
REMARK       I    between atoms: C5_8  and  C6_165 
REMARK       I    between atoms: O4_9  and  C4_40 
REMARK       I    between atoms: O4_9  and  C1_34 
REMARK       I    between atoms: O4_10  and  C4_98 
REMARK       I    between atoms: O4_10  and  C1_142 
REMARK       I    between atoms: O4_11  and  C4_139 
REMARK       I    between atoms: O4_11  and  C1_38 
REMARK       I    between atoms: O2S_13  and  S1_123 
REMARK       I    between atoms: O3_15  and  C3_22 
REMARK       I    between atoms: O2_16  and  S_19 
REMARK       I    between atoms: C4_18  and  O4_92 
REMARK       I    between atoms: C6_21  and  C5_175 
REMARK       I    between atoms: O4_23  and  C4_65 
REMARK       I    between atoms: O4_23  and  C1_101 
REMARK       I    between atoms: O1S_24  and  S1_123 
REMARK       I    between atoms: C6_25  and  C5_136 
REMARK       I    between atoms: C6_25  and  O6_148 
REMARK       I    between atoms: C6_27  and  C5_162 
REMARK       I    between atoms: C6_27  and  O6_103 
REMARK       I    between atoms: C3_30  and  O3_69 
REMARK       I    between atoms: N_31  and  C2_117 
REMARK       I    between atoms: N_31  and  S1_45 
REMARK       I    between atoms: S_36  and  O2_102 
REMARK       I    between atoms: C3_37  and  O3_54 
REMARK       I    between atoms: O3_39  and  C3_149 
REMARK       I    between atoms: O6_42  and  C6_165 
REMARK       I    between atoms: O6_42  and  S2_44 
REMARK       I    between atoms: C4_43  and  O4_106 
REMARK       I    between atoms: S1_45  and  O1S_174 
REMARK       I    between atoms: S1_45  and  O2S_104 
REMARK       I    between atoms: S1_45  and  O3S_96 
REMARK       I    between atoms: O4_46  and  C4_91 
REMARK       I    between atoms: O4_46  and  C1_143 
REMARK       I    between atoms: S1_47  and  N_137 
REMARK       I    between atoms: S1_47  and  O1S_120 
REMARK       I    between atoms: S1_47  and  O2S_125 
REMARK       I    between atoms: S1_47  and  O3S_86 
REMARK       I    between atoms: O1_50  and  C1_107 
REMARK       I    between atoms: O2S_51  and  S1_147 
REMARK       I    between atoms: N_52  and  C2_62 
REMARK       I    between atoms: N_52  and  S1_147 
REMARK       I    between atoms: C5_53  and  C6_128 
REMARK       I    between atoms: C2_56  and  O2_140 
REMARK       I    between atoms: C6_57  and  C5_95 
REMARK       I    between atoms: C6_57  and  O6_146 
REMARK       I    between atoms: S_59  and  O2_140 
REMARK       I    between atoms: C1_61  and  O4_92 
REMARK       I    between atoms: O1S_63  and  S1_132 
REMARK       I    between atoms: C1_64  and  O4_127 
REMARK       I    between atoms: O4_66  and  C4_116 
REMARK       I    between atoms: O4_66  and  C1_141 
REMARK       I    between atoms: S2_68  and  O6_146 
REMARK       I    between atoms: O3_73  and  C3_153 
REMARK       I    between atoms: C6_74  and  C5_82 
REMARK       I    between atoms: C6_74  and  O6_158 
REMARK       I    between atoms: O1S_75  and  S1_147 
REMARK       I    between atoms: C5_76  and  C6_164 
REMARK       I    between atoms: O3S_81  and  S1_147 
REMARK       I    between atoms: O2S_83  and  S1_132 
REMARK       I    between atoms: S_84  and  O2_85 
REMARK       I    between atoms: O2_85  and  C2_111 
REMARK       I    between atoms: O3_89  and  C3_161 
REMARK       I    between atoms: C3_93  and  O3_172 
REMARK       I    between atoms: C6_94  and  C5_109 
REMARK       I    between atoms: C3_97  and  O3_167 
REMARK       I    between atoms: O2_102  and  C2_170 
REMARK       I    between atoms: O6_103  and  S2_155 
REMARK       I    between atoms: S_105  and  O2_113 
REMARK       I    between atoms: C2_112  and  N_137 
REMARK       I    between atoms: O2_113  and  C2_168 
REMARK       I    between atoms: O3S_115  and  S1_132 
REMARK       I    between atoms: S1_123  and  N_124 
REMARK       I    between atoms: S1_123  and  O3S_152 
REMARK       I    between atoms: N_124  and  C2_166 
REMARK       I    between atoms: S2_129  and  O6_158 
REMARK       I    between atoms: C2_131  and  N_134 
REMARK       I    between atoms: S1_132  and  N_134 
REMARK       I    between atoms: C3_133  and  O3_159 
REMARK       I    between atoms: O6_148  and  S2_173 
ROOT
ATOM      1  O3S IDS d 205      25.713 128.855  11.960  0.00  0.00    -0.572 OA
ATOM      2  C4  IDS d 205      24.643 126.939   6.522  0.00  0.00     0.195 C 
ATOM      3  O61 IDS d 205      26.956 124.794   5.143  0.00  0.00    -0.646 OA
ATOM      4  O5  IDS d 205      26.994 126.667   7.132  0.00  0.00    -0.340 OA
ATOM      5  O1S IDS d 205      23.664 128.389  10.768  0.00  0.00    -0.572 OA
ATOM      6  C1  IDS d 205      27.179 127.788   8.012  0.00  0.00     0.294 C 
ATOM      7  C3  IDS d 205      24.625 127.629   7.907  0.00  0.00     0.185 C 
ATOM      8  O3  IDS d 205      23.432 128.377   8.041  0.00  0.00    -0.390 OA
ATOM      9  O62 IDS d 205      25.947 125.982   3.740  0.00  0.00    -0.646 OA
ATOM     10  C5  IDS d 205      26.106 126.920   5.986  0.00  0.00     0.257 C 
ATOM     11  S   IDS d 205      25.106 128.200  10.825  0.00  0.00     0.252 S 
ATOM     12  O2  IDS d 205      25.687 128.994   9.539  0.00  0.00    -0.244 OA
ATOM     13  O2S IDS d 205      25.477 126.802  10.706  0.00  0.00    -0.572 OA
ATOM     14  C2  IDS d 205      25.829 128.540   8.192  0.00  0.00     0.231 C 
ATOM     15  O4  IDS d 205      24.382 125.613   6.763  0.00  0.00    -0.348 OA
ATOM     16  C6  IDS d 205      26.351 125.836   4.880  0.00  0.00     0.206 C 
ATOM     17  H   IDS d 205      23.416 129.082   7.375  0.00  0.00     0.210 HD
ATOM     18  C6  IDS d 207      23.410 121.210  12.783  0.00  0.00     0.206 C 
ATOM     19  C1  IDS d 207      25.134 121.086   9.484  0.00  0.00     0.294 C 
ATOM     20  O2S IDS d 207      25.920 118.699   7.843  0.00  0.00    -0.572 OA
ATOM     21  O4  IDS d 207      24.981 118.908  12.397  0.00  0.00    -0.348 OA
ATOM     22  C5  IDS d 207      24.628 121.149  11.838  0.00  0.00     0.257 C 
ATOM     23  C2  IDS d 207      26.588 120.847   9.969  0.00  0.00     0.231 C 
ATOM     24  S   IDS d 207      27.311 118.959   8.110  0.00  0.00     0.252 S 
ATOM     25  O5  IDS d 207      24.181 120.814  10.503  0.00  0.00    -0.340 OA
ATOM     26  O62 IDS d 207      23.422 121.885  13.795  0.00  0.00    -0.646 OA
ATOM     27  C4  IDS d 207      25.697 120.080  12.252  0.00  0.00     0.195 C 
ATOM     28  C3  IDS d 207      26.647 119.801  11.056  0.00  0.00     0.185 C 
ATOM     29  O3S IDS d 207      28.101 119.103   6.906  0.00  0.00    -0.572 OA
ATOM     30  O1S IDS d 207      27.873 117.991   9.038  0.00  0.00    -0.572 OA
ATOM     31  O2  IDS d 207      27.411 120.378   8.882  0.00  0.00    -0.244 OA
ATOM     32  O61 IDS d 207      22.391 120.565  12.532  0.00  0.00    -0.646 OA
ATOM     33  O3  IDS d 207      27.991 119.686  11.505  0.00  0.00    -0.390 OA
ATOM     34  H   IDS d 207      28.278 120.531  11.886  0.00  0.00     0.210 HD
ATOM     35  O3  IDS d 203      33.820 130.864   2.140  0.00  0.00    -0.390 OA
ATOM     36  C2  IDS d 203      31.831 129.837   1.179  0.00  0.00     0.231 C 
ATOM     37  O1S IDS d 203      32.380 126.915   0.185  0.00  0.00    -0.572 OA
ATOM     38  O2  IDS d 203      31.070 128.641   1.265  0.00  0.00    -0.244 OA
ATOM     39  S   IDS d 203      31.032 127.441   0.250  0.00  0.00     0.252 S 
ATOM     40  O4  IDS d 203      31.260 129.443   4.302  0.00  0.00    -0.348 OA
ATOM     41  C5  IDS d 203      31.038 131.677   3.320  0.00  0.00     0.257 C 
ATOM     42  O61 IDS d 203      29.010 132.091   4.583  0.00  0.00    -0.646 OA
ATOM     43  C4  IDS d 203      32.016 130.509   3.713  0.00  0.00     0.195 C 
ATOM     44  O2S IDS d 203      30.080 126.504   0.815  0.00  0.00    -0.572 OA
ATOM     45  C3  IDS d 203      32.756 129.972   2.445  0.00  0.00     0.185 C 
ATOM     46  O5  IDS d 203      30.160 131.258   2.241  0.00  0.00    -0.340 OA
ATOM     47  O3S IDS d 203      30.591 127.983  -1.004  0.00  0.00    -0.572 OA
ATOM     48  O62 IDS d 203      30.754 132.989   5.311  0.00  0.00    -0.646 OA
ATOM     49  C6  IDS d 203      30.213 132.288   4.472  0.00  0.00     0.206 C 
ATOM     50  C1  IDS d 203      30.807 130.990   0.981  0.00  0.00     0.294 C 
ATOM     51  H   IDS d 203      34.292 130.547   1.354  0.00  0.00     0.210 HD
ATOM     52  O6S SGN d 206      23.661 121.803   3.512  0.00  0.00    -0.572 OA
ATOM     53  N   SGN d 206      22.054 126.164   8.489  0.00  0.00    -0.210 NA
ATOM     54  O4S SGN d 206      24.545 119.582   3.961  0.00  0.00    -0.572 OA
ATOM     55  C4  SGN d 206      24.044 122.890   8.313  0.00  0.00     0.186 C 
ATOM     56  S1  SGN d 206      20.454 126.616   8.606  0.00  0.00     0.156 S 
ATOM     57  O5  SGN d 206      23.500 123.684   6.028  0.00  0.00    -0.349 OA
ATOM     58  C1  SGN d 206      23.137 124.978   6.540  0.00  0.00     0.282 C 
ATOM     59  O5S SGN d 206      22.232 120.087   4.395  0.00  0.00    -0.572 OA
ATOM     60  C6  SGN d 206      25.019 121.773   6.196  0.00  0.00     0.227 C 
ATOM     61  C5  SGN d 206      24.570 123.086   6.851  0.00  0.00     0.181 C 
ATOM     62  C3  SGN d 206      23.580 124.249   8.878  0.00  0.00     0.173 C 
ATOM     63  O3S SGN d 206      20.411 127.931   7.981  0.00  0.00    -0.296 OA
ATOM     64  O2S SGN d 206      20.157 126.671  10.047  0.00  0.00    -0.296 OA
ATOM     65  O4  SGN d 206      25.097 122.418   9.131  0.00  0.00    -0.348 OA
ATOM     66  C2  SGN d 206      22.465 124.825   7.960  0.00  0.00     0.157 C 
ATOM     67  S2  SGN d 206      23.573 120.601   4.325  0.00  0.00     0.251 S 
ATOM     68  O6  SGN d 206      23.896 121.049   5.787  0.00  0.00    -0.254 OA
ATOM     69  O3  SGN d 206      23.075 124.063  10.193  0.00  0.00    -0.391 OA
ATOM     70  O1S SGN d 206      19.640 125.655   7.880  0.00  0.00    -0.296 OA
ATOM     71  H   SGN d 206      22.503 126.857   7.891  0.00  0.00     0.140 HD
ATOM     72  H   SGN d 206      20.612 127.847   7.036  0.00  0.00     0.231 HD
ATOM     73  H   SGN d 206      20.197 125.776  10.420  0.00  0.00     0.231 HD
ATOM     74  H   SGN d 206      22.329 123.444  10.168  0.00  0.00     0.210 HD
ATOM     75  H   SGN d 206      19.689 124.792   8.320  0.00  0.00     0.231 HD
ATOM     76  C5  SGN d 202      30.948 133.022  -1.852  0.00  0.00     0.181 C 
ATOM     77  O4  SGN d 202      31.477 132.118   0.408  0.00  0.00    -0.348 OA
ATOM     78  O6  SGN d 202      29.076 131.613  -2.239  0.00  0.00    -0.254 OA
ATOM     79  S2  SGN d 202      28.012 130.500  -2.604  0.00  0.00     0.251 S 
ATOM     80  S1  SGN d 202      29.465 138.199  -0.304  0.00  0.00     0.156 S 
ATOM     81  O1  SGN d 202      31.775 135.797  -2.592  0.00  0.00    -0.369 OA
ATOM     82  O6S SGN d 202      28.049 130.346  -4.048  0.00  0.00    -0.572 OA
ATOM     83  O3S SGN d 202      30.180 139.391   0.089  0.00  0.00    -0.296 OA
ATOM     84  O5S SGN d 202      26.740 131.037  -2.137  0.00  0.00    -0.572 OA
ATOM     85  O3  SGN d 202      30.936 134.683   1.550  0.00  0.00    -0.391 OA
ATOM     86  C4  SGN d 202      30.697 133.122  -0.302  0.00  0.00     0.186 C 
ATOM     87  C1  SGN d 202      30.481 135.420  -2.170  0.00  0.00     0.278 C 
ATOM     88  C2  SGN d 202      30.280 135.581  -0.621  0.00  0.00     0.157 C 
ATOM     89  O1S SGN d 202      28.964 138.306  -1.658  0.00  0.00    -0.296 OA
ATOM     90  O4S SGN d 202      28.399 129.305  -1.885  0.00  0.00    -0.572 OA
ATOM     91  O2S SGN d 202      28.427 137.842   0.648  0.00  0.00    -0.296 OA
ATOM     92  N   SGN d 202      30.617 136.985  -0.237  0.00  0.00    -0.210 NA
ATOM     93  C3  SGN d 202      31.151 134.536   0.153  0.00  0.00     0.173 C 
ATOM     94  C6  SGN d 202      30.490 131.666  -2.450  0.00  0.00     0.227 C 
ATOM     95  O5  SGN d 202      30.196 134.063  -2.560  0.00  0.00    -0.350 OA
ATOM     96  H   SGN d 202      31.950 136.712  -2.321  0.00  0.00     0.212 HD
ATOM     97  H   SGN d 202      30.861 139.592  -0.572  0.00  0.00     0.231 HD
ATOM     98  H   SGN d 202      31.476 134.036   2.030  0.00  0.00     0.210 HD
ATOM     99  H   SGN d 202      28.490 137.493  -1.893  0.00  0.00     0.231 HD
ATOM    100  H   SGN d 202      27.974 137.039   0.346  0.00  0.00     0.231 HD
ATOM    101  H   SGN d 202      30.946 136.951   0.728  0.00  0.00     0.140 HD
ATOM    102  O4  SGN d 204      28.099 128.759   7.479  0.00  0.00    -0.348 OA
ATOM    103  O3  SGN d 204      29.027 126.399   5.990  0.00  0.00    -0.391 OA
ATOM    104  C3  SGN d 204      29.649 127.635   5.857  0.00  0.00     0.173 C 
ATOM    105  C6  SGN d 204      30.316 130.685   8.258  0.00  0.00     0.227 C 
ATOM    106  C4  SGN d 204      29.516 128.442   7.199  0.00  0.00     0.186 C 
ATOM    107  O5  SGN d 204      31.659 129.536   6.650  0.00  0.00    -0.349 OA
ATOM    108  O1S SGN d 204      33.701 126.020   4.830  0.00  0.00    -0.296 OA
ATOM    109  O2S SGN d 204      32.000 124.316   5.049  0.00  0.00    -0.296 OA
ATOM    110  O6S SGN d 204      30.601 131.678  11.000  0.00  0.00    -0.572 OA
ATOM    111  C1  SGN d 204      31.826 128.752   5.434  0.00  0.00     0.282 C 
ATOM    112  O4S SGN d 204      28.560 130.365  11.177  0.00  0.00    -0.572 OA
ATOM    113  O3S SGN d 204      32.650 125.098   2.862  0.00  0.00    -0.296 OA
ATOM    114  C2  SGN d 204      31.129 127.380   5.585  0.00  0.00     0.157 C 
ATOM    115  S1  SGN d 204      32.494 125.434   4.275  0.00  0.00     0.156 S 
ATOM    116  N   SGN d 204      31.306 126.595   4.330  0.00  0.00    -0.210 NA
ATOM    117  O5S SGN d 204      30.708 129.355  11.689  0.00  0.00    -0.572 OA
ATOM    118  C5  SGN d 204      30.285 129.789   7.013  0.00  0.00     0.181 C 
ATOM    119  O6  SGN d 204      30.186 129.880   9.409  0.00  0.00    -0.254 OA
ATOM    120  S2  SGN d 204      29.991 130.355  10.906  0.00  0.00     0.251 S 
ATOM    121  H   SGN d 204      29.111 125.904   5.160  0.00  0.00     0.210 HD
ATOM    122  H   SGN d 204      34.416 125.365   4.812  0.00  0.00     0.231 HD
ATOM    123  H   SGN d 204      32.660 123.606   5.049  0.00  0.00     0.231 HD
ATOM    124  H   SGN d 204      33.336 124.419   2.765  0.00  0.00     0.231 HD
ATOM    125  H   SGN d 204      31.503 127.262   3.584  0.00  0.00     0.140 HD
ATOM    126  O4  SGN d 210      19.572 108.751  15.466  0.00  0.00    -0.348 OA
ATOM    127  O2S SGN d 210      15.636 109.773  11.378  0.00  0.00    -0.296 OA
ATOM    128  N   SGN d 210      17.623 111.211  11.813  0.00  0.00    -0.210 NA
ATOM    129  C6  SGN d 210      21.555 107.414  13.479  0.00  0.00     0.227 C 
ATOM    130  O6S SGN d 210      20.853 106.236  10.600  0.00  0.00    -0.572 OA
ATOM    131  C1  SGN d 210      19.728 109.920  11.399  0.00  0.00     0.282 C 
ATOM    132  C2  SGN d 210      18.352 110.002  12.194  0.00  0.00     0.157 C 
ATOM    133  S2  SGN d 210      21.243 105.456  11.742  0.00  0.00     0.251 S 
ATOM    134  O3  SGN d 210      17.417 110.068  14.422  0.00  0.00    -0.391 OA
ATOM    135  O1S SGN d 210      16.354 111.323   9.667  0.00  0.00    -0.296 OA
ATOM    136  O3S SGN d 210      15.370 112.140  11.700  0.00  0.00    -0.296 OA
ATOM    137  C5  SGN d 210      20.713 108.688  13.237  0.00  0.00     0.181 C 
ATOM    138  C4  SGN d 210      19.353 108.744  14.052  0.00  0.00     0.186 C 
ATOM    139  O6  SGN d 210      20.868 106.296  12.978  0.00  0.00    -0.254 OA
ATOM    140  S1  SGN d 210      16.155 111.094  11.083  0.00  0.00     0.156 S 
ATOM    141  C3  SGN d 210      18.631 110.016  13.704  0.00  0.00     0.173 C 
ATOM    142  O5S SGN d 210      20.463 104.253  11.885  0.00  0.00    -0.572 OA
ATOM    143  O5  SGN d 210      20.437 108.746  11.790  0.00  0.00    -0.349 OA
ATOM    144  O4S SGN d 210      22.662 105.225  11.810  0.00  0.00    -0.572 OA
ATOM    145  H   SGN d 210      16.190 109.104  10.946  0.00  0.00     0.231 HD
ATOM    146  H   SGN d 210      18.227 111.730  11.176  0.00  0.00     0.140 HD
ATOM    147  H   SGN d 210      16.946 110.887  14.202  0.00  0.00     0.210 HD
ATOM    148  H   SGN d 210      16.883 110.601   9.294  0.00  0.00     0.231 HD
ATOM    149  H   SGN d 210      15.261 111.948  12.645  0.00  0.00     0.231 HD
ATOM    150  O2S SGN d 208      29.246 117.066  11.791  0.00  0.00    -0.296 OA
ATOM    151  O4S SGN d 208      21.554 115.296  15.754  0.00  0.00    -0.572 OA
ATOM    152  O1S SGN d 208      28.523 115.782  13.728  0.00  0.00    -0.296 OA
ATOM    153  C6  SGN d 208      21.537 117.719  14.164  0.00  0.00     0.227 C 
ATOM    154  O4  SGN d 208      22.080 115.747  11.910  0.00  0.00    -0.348 OA
ATOM    155  O5  SGN d 208      23.939 118.037  14.186  0.00  0.00    -0.349 OA
ATOM    156  O6  SGN d 208      21.858 117.680  15.520  0.00  0.00    -0.254 OA
ATOM    157  O6S SGN d 208      20.235 116.841  17.074  0.00  0.00    -0.572 OA
ATOM    158  C4  SGN d 208      23.111 116.163  12.795  0.00  0.00     0.186 C 
ATOM    159  S1  SGN d 208      28.289 116.932  12.882  0.00  0.00     0.156 S 
ATOM    160  N   SGN d 208      26.820 116.736  12.146  0.00  0.00    -0.210 NA
ATOM    161  C3  SGN d 208      24.417 116.199  12.003  0.00  0.00     0.173 C 
ATOM    162  C1  SGN d 208      25.174 118.083  13.476  0.00  0.00     0.282 C 
ATOM    163  O5S SGN d 208      22.604 116.613  17.491  0.00  0.00    -0.572 OA
ATOM    164  O3S SGN d 208      28.184 118.147  13.667  0.00  0.00    -0.296 OA
ATOM    165  S2  SGN d 208      21.538 116.534  16.512  0.00  0.00     0.251 S 
ATOM    166  O3  SGN d 208      24.710 114.899  11.513  0.00  0.00    -0.391 OA
ATOM    167  C5  SGN d 208      22.824 117.609  13.334  0.00  0.00     0.181 C 
ATOM    168  C2  SGN d 208      25.552 116.666  12.926  0.00  0.00     0.157 C 
ATOM    169  H   SGN d 208      29.286 116.235  11.292  0.00  0.00     0.231 HD
ATOM    170  H   SGN d 208      28.589 114.985  13.179  0.00  0.00     0.231 HD
ATOM    171  H   SGN d 208      26.879 115.866  11.617  0.00  0.00     0.140 HD
ATOM    172  H   SGN d 208      29.024 118.311  14.123  0.00  0.00     0.231 HD
ATOM    173  H   SGN d 208      24.798 114.285  12.258  0.00  0.00     0.210 HD
ATOM    174  O3S IDS d 209      18.778 114.386  13.885  0.00  0.00    -0.572 OA
ATOM    175  C4  IDS d 209      20.734 112.103  10.790  0.00  0.00     0.195 C 
ATOM    176  C6  IDS d 209      23.266 111.630  11.244  0.00  0.00     0.206 C 
ATOM    177  O61 IDS d 209      23.573 110.919  10.304  0.00  0.00    -0.646 OA
ATOM    178  C3  IDS d 209      19.645 113.156  11.112  0.00  0.00     0.185 C 
ATOM    179  S   IDS d 209      18.097 115.260  12.927  0.00  0.00     0.252 S 
ATOM    180  O2S IDS d 209      16.843 114.714  12.453  0.00  0.00    -0.572 OA
ATOM    181  O3  IDS d 209      18.637 113.119  10.106  0.00  0.00    -0.390 OA
ATOM    182  O62 IDS d 209      23.847 111.457  12.298  0.00  0.00    -0.646 OA
ATOM    183  O4  IDS d 209      20.544 111.034  11.714  0.00  0.00    -0.348 OA
ATOM    184  O5  IDS d 209      22.089 113.460  12.335  0.00  0.00    -0.340 OA
ATOM    185  O2  IDS d 209      19.082 115.416  11.641  0.00  0.00    -0.244 OA
ATOM    186  C1  IDS d 209      21.311 114.658  12.275  0.00  0.00     0.294 C 
ATOM    187  O1S IDS d 209      17.949 116.613  13.421  0.00  0.00    -0.572 OA
ATOM    188  C2  IDS d 209      20.180 114.571  11.235  0.00  0.00     0.231 C 
ATOM    189  C5  IDS d 209      22.166 112.699  11.102  0.00  0.00     0.257 C 
ATOM    190  H   IDS d 209      19.026 113.358   9.250  0.00  0.00     0.210 HD
ATOM    191  O1S IDS d 211      22.925 105.460  16.019  0.00  0.00    -0.572 OA
ATOM    192  C1  IDS d 211      18.804 107.825  16.190  0.00  0.00     0.294 C 
ATOM    193  O3  IDS d 211      19.749 105.001  18.319  0.00  0.00    -0.393 OA
ATOM    194  C6  IDS d 211      15.672 107.882  18.267  0.00  0.00     0.203 C 
ATOM    195  S   IDS d 211      22.367 106.468  16.908  0.00  0.00     0.252 S 
ATOM    196  C5  IDS d 211      17.205 107.672  18.144  0.00  0.00     0.228 C 
ATOM    197  O2  IDS d 211      20.892 106.655  16.391  0.00  0.00    -0.244 OA
ATOM    198  O62 IDS d 211      15.199 108.902  18.751  0.00  0.00    -0.646 OA
ATOM    199  O61 IDS d 211      14.888 107.011  17.895  0.00  0.00    -0.646 OA
ATOM    200  C3  IDS d 211      18.961 105.783  17.454  0.00  0.00     0.156 C 
ATOM    201  O2S IDS d 211      23.048 107.746  16.784  0.00  0.00    -0.572 OA
ATOM    202  O5  IDS d 211      17.728 108.425  16.935  0.00  0.00    -0.343 OA
ATOM    203  C4  IDS d 211      17.616 106.111  18.159  0.00  0.00     0.077 C 
ATOM    204  C2  IDS d 211      19.709 107.031  17.094  0.00  0.00     0.228 C 
ATOM    205  O3S IDS d 211      22.252 106.008  18.273  0.00  0.00    -0.572 OA
ATOM    206  H   IDS d 211      20.592 104.791  17.887  0.00  0.00     0.210 HD
ENDROOT
TORSDOF 84
