REMARK  19 active torsions:
REMARK  status: ('A' for Active; 'I' for Inactive)
REMARK    1  A    between atoms: O28_1  and  S20_3 
REMARK    2  A    between atoms: N14_2  and  C8_22 
REMARK    3  A    between atoms: N14_2  and  S20_3 
REMARK    4  A    between atoms: S20_3  and  O29_8 
REMARK    5  A    between atoms: S20_3  and  O30_5 
REMARK    6  A    between atoms: C7_4  and  O3_15 
REMARK    7  A    between atoms: C4_7  and  O9_23 
REMARK    8  A    between atoms: C12_9  and  O18_29 
REMARK    9  A    between atoms: C1_10  and  O3_15 
REMARK   10  A    between atoms: C2_14  and  C6_31 
REMARK   11  A    between atoms: S16_16  and  O11_20 
REMARK   12  A    between atoms: S16_16  and  O23_25 
REMARK   13  A    between atoms: O15_17  and  C10_30 
REMARK   14  A    between atoms: O35_18  and  C27_32 
REMARK   15  A    between atoms: O11_20  and  C6_31 
REMARK   16  A    between atoms: C17_24  and  O25_28 
REMARK   17  A    between atoms: C19_27  and  C27_32 
REMARK   18  A    between atoms: O18_29  and  S26_33 
REMARK   19  A    between atoms: S26_33  and  O31_35 
ROOT
ATOM      1  C4  H1S d 601      29.742  10.599  13.146  0.00  0.00     0.173 C 
ATOM      2  C1  H1S d 601      28.263  10.364  13.460  0.00  0.00     0.186 C 
ATOM      3  O5  H1S d 601      28.409   8.150  12.477  0.00  0.00    -0.350 OA
ATOM      4  C2  H1S d 601      28.042   8.863  13.671  0.00  0.00     0.181 C 
ATOM      5  C8  H1S d 601      30.124   9.783  11.910  0.00  0.00     0.157 C 
ATOM      6  C10 H1S d 601      29.802   8.305  12.154  0.00  0.00     0.278 C 
ENDROOT
BRANCH   2   7
ATOM      7  O3  H1S d 601      27.900  11.106  14.653  0.00  0.00    -0.348 OA
BRANCH   7   8
ATOM      8  C7  H1S d 601      26.682  11.846  14.384  0.00  0.00     0.300 C 
ATOM      9  C12 H1S d 601      26.074  12.411  15.670  0.00  0.00     0.232 C 
ATOM     10  C17 H1S d 601      27.098  13.302  16.376  0.00  0.00     0.179 C 
ATOM     11  C24 H1S d 601      27.838  14.157  15.345  0.00  0.00     0.051 C 
ATOM     12  C19 H1S d 601      27.717  13.924  13.978  0.00  0.00     0.144 C 
ATOM     13  O13 H1S d 601      26.930  12.933  13.474  0.00  0.00    -0.311 OA
BRANCH   9  14
ATOM     14  O18 H1S d 601      24.933  13.197  15.313  0.00  0.00    -0.250 OA
BRANCH  14  15
ATOM     15  S26 H1S d 601      23.884  13.001  16.267  0.00  0.00     0.241 S 
ATOM     16  O33 H1S d 601      22.585  13.480  15.688  0.00  0.00    -0.579 OA
ATOM     17  O32 H1S d 601      24.190  13.779  17.512  0.00  0.00    -0.579 OA
BRANCH  15  18
ATOM     18  O31 H1S d 601      23.774  11.543  16.600  0.00  0.00    -0.274 OA
ATOM     19  H   H1S d 601      23.063  11.412  17.247  0.00  0.00     0.234 HD
ENDBRANCH  15  18
ENDBRANCH  14  15
ENDBRANCH   9  14
BRANCH  10  20
ATOM     20  O25 H1S d 601      28.045  12.487  17.074  0.00  0.00    -0.389 OA
ATOM     21  H   H1S d 601      28.505  11.913  16.442  0.00  0.00     0.210 HD
ENDBRANCH  10  20
BRANCH  12  22
ATOM     22  C27 H1S d 601      28.484  14.827  13.009  0.00  0.00     0.200 C 
ATOM     23  O34 H1S d 601      29.335  15.608  13.491  0.00  0.00    -0.645 OA
BRANCH  22  24
ATOM     24  O35 H1S d 601      28.226  14.732  11.792  0.00  0.00    -0.771 OA
ATOM     25  H   H1S d 601      27.576  14.125  11.497  0.00  0.00     0.167 HD
ENDBRANCH  22  24
ENDBRANCH  12  22
ENDBRANCH   7   8
ENDBRANCH   2   7
BRANCH   1  26
ATOM     26  O9  H1S d 601      29.953  11.989  12.886  0.00  0.00    -0.391 OA
ATOM     27  H   H1S d 601      29.407  12.264  12.133  0.00  0.00     0.210 HD
ENDBRANCH   1  26
BRANCH   4  28
ATOM     28  C6  H1S d 601      26.567   8.597  13.986  0.00  0.00     0.226 C 
BRANCH  28  29
ATOM     29  O11 H1S d 601      25.715   8.985  12.903  0.00  0.00    -0.261 OA
BRANCH  29  30
ATOM     30  S16 H1S d 601      24.295   9.044  13.077  0.00  0.00     0.240 S 
ATOM     31  O21 H1S d 601      24.184  10.327  13.848  0.00  0.00    -0.579 OA
ATOM     32  O22 H1S d 601      24.064   7.745  13.786  0.00  0.00    -0.579 OA
BRANCH  30  33
ATOM     33  O23 H1S d 601      23.852   9.183  11.649  0.00  0.00    -0.274 OA
ATOM     34  H   H1S d 601      24.067  10.073  11.329  0.00  0.00     0.234 HD
ENDBRANCH  30  33
ENDBRANCH  29  30
ENDBRANCH  28  29
ENDBRANCH   4  28
BRANCH   5  35
ATOM     35  N14 H1S d 601      31.554   9.961  11.622  0.00  0.00    -0.210 NA
ATOM     36  H   H1S d 601      32.094   9.327  12.211  0.00  0.00     0.140 HD
BRANCH  35  37
ATOM     37  S20 H1S d 601      31.880   9.642  10.056  0.00  0.00     0.156 S 
BRANCH  37  38
ATOM     38  O28 H1S d 601      30.789  10.196   9.188  0.00  0.00    -0.296 OA
ATOM     39  H   H1S d 601      30.725  11.155   9.321  0.00  0.00     0.231 HD
ENDBRANCH  37  38
BRANCH  37  40
ATOM     40  O29 H1S d 601      33.180  10.288   9.678  0.00  0.00    -0.296 OA
ATOM     41  H   H1S d 601      33.115  11.247   9.811  0.00  0.00     0.231 HD
ENDBRANCH  37  40
BRANCH  37  42
ATOM     42  O30 H1S d 601      31.980   8.160   9.851  0.00  0.00    -0.296 OA
ATOM     43  H   H1S d 601      31.139   7.742  10.095  0.00  0.00     0.231 HD
ENDBRANCH  37  42
ENDBRANCH  35  37
ENDBRANCH   5  35
BRANCH   6  44
ATOM     44  O15 H1S d 601      30.607   7.803  13.225  0.00  0.00    -0.369 OA
ATOM     45  H   H1S d 601      30.399   6.867  13.375  0.00  0.00     0.212 HD
ENDBRANCH   6  44
TORSDOF 19
