REMARK 12 active torsions
REMARK    1  A    between atoms: atom1  and  atom_
REMARK    2  A    between atoms: atom5  and  atom_
REMARK    3  A    between atoms: atom1  and  atom2
REMARK    4  A    between atoms: atom1  and  atom4
REMARK    5  A    between atoms: atom1  and  atom7
REMARK    6  A    between atoms: atom1  and  atom_
REMARK    7  A    between atoms: atom3  and  atom6
REMARK    8  A    between atoms: atom3  and  atom7
REMARK    9  A    between atoms: atom4  and  atom6
REMARK    10  A    between atoms: atom3  and  atom9
REMARK    11  A    between atoms: atom8  and  atom_
REMARK    12  A    between atoms: atom5  and  atom3
ROOT
ATOM      1  O4  BDP d1001      10.728 -11.851  32.303  0.00  0.00    -0.348 OA
ENDROOT
BRANCH   1   2
ATOM      2  C4  BDP d1001      12.119 -12.038  31.894  0.00  0.00     0.195 C 
ATOM      3  C5  BDP d1001      12.231 -13.713  31.793  0.00  0.00     0.253 C 
ATOM      4  O5  BDP d1001      13.839 -13.832  31.717  0.00  0.00    -0.340 OA
ATOM      5  C1  BDP d1001      14.776 -13.048  32.515  0.00  0.00     0.292 C 
ATOM      6  C2  BDP d1001      14.529 -11.526  32.345  0.00  0.00     0.204 C 
ATOM      7  C3  BDP d1001      13.084 -11.250  32.806  0.00  0.00     0.183 C 
ATOM      8  C6  BDP d1001      11.570 -14.462  31.067  0.00  0.00     0.172 C 
ATOM      9  O6A BDP d1001      10.532 -13.977  30.533  0.00  0.00    -0.648 OA
ATOM     31  O2  BDP d1001      15.470 -10.788  33.166  0.00  0.00    -0.388 OA
ATOM     32  H   BDP d1001      15.315  -9.836  33.059  0.00  0.00     0.210 HD
ATOM     33  O3  BDP d1001      12.805  -9.838  32.688  0.00  0.00    -0.390 OA
ATOM     34  H   BDP d1001      12.918  -9.562  31.765  0.00  0.00     0.210 HD
BRANCH   5  12
ATOM     12  O3  NAG d1000      16.061 -13.456  32.143  0.00  0.00    -0.348 OA
BRANCH  12  13
ATOM     13  C3  NAG d1000      16.557 -14.664  32.802  0.00  0.00     0.183 C 
ATOM     14  C2  NAG d1000      18.059 -14.477  33.167  0.00  0.00     0.171 C 
ATOM     15  C1  NAG d1000      18.546 -15.782  33.871  0.00  0.00     0.282 C 
ATOM     16  O5  NAG d1000      18.391 -17.009  32.972  0.00  0.00    -0.349 OA
ATOM     17  C5  NAG d1000      16.964 -17.187  32.565  0.00  0.00     0.179 C 
ATOM     18  C4  NAG d1000      16.427 -15.896  31.820  0.00  0.00     0.180 C 
ATOM     24  O1  NAG d1000      19.906 -15.672  34.215  0.00  0.00    -0.369 OA
ATOM     25  H   NAG d1000      20.033 -14.899  34.787  0.00  0.00     0.212 HD
ATOM     29  O4  NAG d1000      15.044 -16.125  31.449  0.00  0.00    -0.390 OA
ATOM     30  H   NAG d1000      14.698 -15.343  30.991  0.00  0.00     0.210 HD
BRANCH  14  19
ATOM     19  N2  NAG d1000      18.237 -13.297  34.103  0.00  0.00    -0.349 N 
ATOM     20  C7  NAG d1000      18.605 -12.014  33.639  0.00  0.00     0.214 C 
ATOM     21  C8  NAG d1000      18.707 -11.022  34.771  0.00  0.00     0.117 C 
ATOM     22  O7  NAG d1000      18.822 -11.696  32.456  0.00  0.00    -0.274 OA
ATOM     23  H   NAG d1000      18.091 -13.430  35.068  0.00  0.00     0.163 HD
ENDBRANCH  14  19
BRANCH  17  26
ATOM     26  C6  NAG d1000      16.895 -18.446  31.679  0.00  0.00     0.198 C 
ATOM     27  O6  NAG d1000      16.208 -19.540  32.325  0.00  0.00    -0.398 OA
ATOM     28  H   NAG d1000      16.190 -20.306  31.731  0.00  0.00     0.209 HD
ENDBRANCH  17  26
ENDBRANCH  12  13
ENDBRANCH   5  12
BRANCH   8  10
ATOM     10  O6B BDP d1001      12.040 -15.624  30.940  0.00  0.00    -0.774 OA
ATOM     11  H   BDP d1001      12.824 -15.864  31.393  0.00  0.00     0.167 HD
ENDBRANCH   8  10
ENDBRANCH   1   2
BRANCH   1  35
ATOM     35  C1  NAG d1002       9.857 -11.019  31.583  0.00  0.00     0.286 C 
ATOM     36  C2  NAG d1002       8.434 -11.045  32.244  0.00  0.00     0.171 C 
ATOM     37  C3  NAG d1002       7.502 -10.121  31.425  0.00  0.00     0.183 C 
ATOM     38  C4  NAG d1002       8.051  -8.666  31.447  0.00  0.00     0.180 C 
ATOM     39  C5  NAG d1002       9.489  -8.671  30.803  0.00  0.00     0.179 C 
ATOM     40  O5  NAG d1002      10.404  -9.584  31.564  0.00  0.00    -0.349 OA
ATOM     63  O4  NAG d1002       7.192  -7.785  30.681  0.00  0.00    -0.390 OA
ATOM     64  H   NAG d1002       7.151  -8.092  29.762  0.00  0.00     0.210 HD
BRANCH  36  41
ATOM     41  N2  NAG d1002       7.858 -12.448  32.243  0.00  0.00    -0.349 N 
ATOM     42  C7  NAG d1002       7.100 -12.949  33.325  0.00  0.00     0.214 C 
ATOM     43  O7  NAG d1002       6.834 -12.343  34.358  0.00  0.00    -0.274 OA
ATOM     44  C8  NAG d1002       6.613 -14.341  33.078  0.00  0.00     0.117 C 
ATOM     45  H   NAG d1002       8.017 -13.028  31.464  0.00  0.00     0.163 HD
ENDBRANCH  36  41
BRANCH  37  46
ATOM     46  O3  NAG d1002       6.185 -10.136  32.008  0.00  0.00    -0.348 OA
BRANCH  46  47
ATOM     47  C1  BDP d1003       5.153 -10.602  31.193  0.00  0.00     0.292 C 
ATOM     48  O5  BDP d1003       5.046  -9.817  29.988  0.00  0.00    -0.340 OA
ATOM     49  C5  BDP d1003       3.970 -10.184  29.052  0.00  0.00     0.253 C 
ATOM     50  C4  BDP d1003       2.751 -10.170  29.672  0.00  0.00     0.189 C 
ATOM     51  C3  BDP d1003       2.770 -11.090  30.896  0.00  0.00     0.183 C 
ATOM     52  C2  BDP d1003       3.827 -10.582  31.927  0.00  0.00     0.204 C 
ATOM     53  C6  BDP d1003       4.051  -9.280  27.837  0.00  0.00     0.172 C 
ATOM     54  O6A BDP d1003       3.679  -9.822  26.769  0.00  0.00    -0.648 OA
ATOM     57  O4  BDP d1003       1.751 -10.547  28.627  0.00  0.00    -0.390 OA
ATOM     58  H   BDP d1003       1.977 -11.417  28.262  0.00  0.00     0.210 HD
ATOM     59  O3  BDP d1003       1.490 -11.087  31.576  0.00  0.00    -0.390 OA
ATOM     60  H   BDP d1003       1.531 -11.677  32.345  0.00  0.00     0.210 HD
ATOM     61  O2  BDP d1003       3.935 -11.403  33.118  0.00  0.00    -0.388 OA
ATOM     62  H   BDP d1003       4.199 -12.302  32.868  0.00  0.00     0.210 HD
BRANCH  53  55
ATOM     55  O6B BDP d1003       4.490  -8.127  28.064  0.00  0.00    -0.774 OA
ATOM     56  H   BDP d1003       4.726  -7.879  28.936  0.00  0.00     0.167 HD
ENDBRANCH  53  55
ENDBRANCH  46  47
ENDBRANCH  37  46
BRANCH  39  65
ATOM     65  C6  NAG d1002      10.118  -7.263  30.814  0.00  0.00     0.198 C 
ATOM     66  O6  NAG d1002      10.326  -6.751  32.144  0.00  0.00    -0.398 OA
ATOM     67  H   NAG d1002       9.472  -6.672  32.597  0.00  0.00     0.209 HD
ENDBRANCH  39  65
ENDBRANCH   1  35
TORSDOF 12
