REMARK WARNING: 32 MAX_TORS EXCEEDED!!!
REMARK  43 active torsions:
REMARK  status: ('A' for Active; 'I' for Inactive)
REMARK    1  A    between atoms: C6_1  and  C5_56 
REMARK    2  A    between atoms: C6_1  and  O62_63 
REMARK    3  A    between atoms: S1_6  and  N_47 
REMARK    4  A    between atoms: C1_7  and  O4_76 
REMARK    5  A    between atoms: C4_8  and  O4_66 
REMARK    6  A    between atoms: C5_11  and  C6_71 
REMARK    7  A    between atoms: O4_13  and  C1_18 
REMARK    8  A    between atoms: O4_13  and  C4_19 
REMARK    9  A    between atoms: C2_14  and  N_70 
REMARK   10  A    between atoms: O6_16  and  C6_45 
REMARK   11  A    between atoms: O6_16  and  S2_60 
REMARK   12  A    between atoms: C4_17  and  O4_46 
REMARK   13  A    between atoms: C2_20  and  O2_81 
REMARK   14  A    between atoms: C5_21  and  C6_102 
REMARK   15  A    between atoms: S2_22  and  O6_43 
REMARK   16  A    between atoms: O3_27  and  C3_85 
REMARK   17  A    between atoms: C3_28  and  O3_44 
REMARK   18  A    between atoms: C1_29  and  O4_66 
REMARK   19  A    between atoms: O6_33  and  C6_71 
REMARK   20  A    between atoms: O6_33  and  S2_84 
REMARK   21  A    between atoms: C3_34  and  O3_40 
REMARK   22  A    between atoms: C2_35  and  O2_87 
REMARK   23  A    between atoms: S_38  and  O2_81 
REMARK   24  A    between atoms: S_41  and  O2_67 
REMARK   25  A    between atoms: O6_43  and  C6_65 
REMARK   26  A    between atoms: C6_45  and  C5_61 
REMARK   27  A    between atoms: O4_46  and  C1_49 
REMARK   28  A    between atoms: N_47  and  C2_50 
REMARK   29  A    between atoms: C4_51  and  O4_62 
REMARK   30  A    between atoms: N_53  and  C2_90 
REMARK   31  A    between atoms: N_53  and  S1_91 
REMARK   32  A    between atoms: C3_54  and  O3_98 
REMARK   33  A    between atoms: O3_55  and  C3_89 
REMARK   34  A    between atoms: O62_59  and  C6_102 
REMARK   35  A    between atoms: O4_62  and  C1_92 
REMARK   36  A    between atoms: O62_64  and  C6_94 
REMARK   37  A    between atoms: C6_65  and  C5_88 
REMARK   38  A    between atoms: O2_67  and  C2_68 
REMARK   39  A    between atoms: N_70  and  S1_100 
REMARK   40  A    between atoms: C4_73  and  O4_76 
REMARK   41  A    between atoms: O3_86  and  C3_95 
REMARK   42  A    between atoms: O2_87  and  S_97 
REMARK   43  A    between atoms: C6_94  and  C5_103 
ROOT
ATOM      1  C4  SGN d 304      18.699  13.020  11.030  0.00  0.00     0.186 C 
ATOM      2  O5  SGN d 304      18.544  15.421  10.674  0.00  0.00    -0.349 OA
ATOM      3  C5  SGN d 304      18.380  14.166  10.042  0.00  0.00     0.181 C 
ATOM      4  C2  SGN d 304      20.106  14.542  12.272  0.00  0.00     0.160 C 
ATOM      5  C1  SGN d 304      19.878  15.653  11.246  0.00  0.00     0.282 C 
ATOM      6  C3  SGN d 304      20.139  13.170  11.542  0.00  0.00     0.173 C 
ENDROOT
BRANCH   1   7
ATOM      7  O4  SGN d 304      18.550  11.725  10.377  0.00  0.00    -0.348 OA
BRANCH   7   8
ATOM      8  C1  IDS d 303      17.248  11.137  10.404  0.00  0.00     0.294 C 
ATOM      9  O5  IDS d 303      16.751  10.814  11.773  0.00  0.00    -0.340 OA
ATOM     10  C5  IDS d 303      17.543   9.777  12.474  0.00  0.00     0.253 C 
ATOM     11  C4  IDS d 303      17.490   8.460  11.687  0.00  0.00     0.195 C 
ATOM     12  C3  IDS d 303      17.975   8.695  10.210  0.00  0.00     0.185 C 
ATOM     13  C2  IDS d 303      17.209   9.923   9.463  0.00  0.00     0.231 C 
BRANCH  10  14
ATOM     14  C6  IDS d 303      16.991   9.485  13.911  0.00  0.00     0.172 C 
ATOM     15  O61 IDS d 303      16.003  10.070  14.360  0.00  0.00    -0.648 OA
BRANCH  14  16
ATOM     16  O62 IDS d 303      17.585   8.553  14.662  0.00  0.00    -0.774 OA
ATOM     17  H   IDS d 303      18.337   8.098  14.337  0.00  0.00     0.167 HD
ENDBRANCH  14  16
ENDBRANCH  10  14
BRANCH  11  18
ATOM     18  O4  IDS d 303      16.161   7.951  11.813  0.00  0.00    -0.348 OA
BRANCH  18  19
ATOM     19  C1  SGN d 302      16.129   6.516  11.883  0.00  0.00     0.282 C 
ATOM     20  C2  SGN d 302      14.751   6.009  11.444  0.00  0.00     0.160 C 
ATOM     21  C3  SGN d 302      13.686   6.226  12.544  0.00  0.00     0.173 C 
ATOM     22  C4  SGN d 302      14.164   5.398  13.794  0.00  0.00     0.186 C 
ATOM     23  C5  SGN d 302      15.494   5.996  14.260  0.00  0.00     0.181 C 
ATOM     24  O5  SGN d 302      16.512   5.908  13.187  0.00  0.00    -0.349 OA
BRANCH  20  25
ATOM     25  N   SGN d 302      14.460   6.672  10.175  0.00  0.00    -0.189 NA
ATOM     26  H   SGN d 302      14.682   7.660  10.302  0.00  0.00     0.143 HD
BRANCH  25  27
ATOM     27  S1  SGN d 302      15.243   6.173   8.755  0.00  0.00     0.183 S 
ATOM     28  O1S SGN d 302      14.710   7.050   7.748  0.00  0.00    -0.582 OA
ATOM     29  O3S SGN d 302      14.894   4.735   8.406  0.00  0.00    -0.582 OA
ATOM     30  O2S SGN d 302      16.654   6.104   9.028  0.00  0.00    -0.582 OA
ENDBRANCH  25  27
ENDBRANCH  20  25
BRANCH  21  31
ATOM     31  O3  SGN d 302      12.440   5.736  12.062  0.00  0.00    -0.391 OA
ATOM     32  H   SGN d 302      12.532   4.801  11.821  0.00  0.00     0.210 HD
ENDBRANCH  21  31
BRANCH  22  33
ATOM     33  O4  SGN d 302      13.227   5.429  14.925  0.00  0.00    -0.348 OA
BRANCH  33  34
ATOM     34  C1  UAP d 301      12.655   6.584  15.510  0.00  0.00     0.300 C 
ATOM     35  O5  UAP d 301      11.308   6.761  15.006  0.00  0.00    -0.311 OA
ATOM     36  C5  UAP d 301      10.534   7.646  15.696  0.00  0.00     0.144 C 
ATOM     37  C4  UAP d 301      10.783   8.114  16.952  0.00  0.00     0.051 C 
ATOM     38  C3  UAP d 301      12.029   7.642  17.753  0.00  0.00     0.179 C 
ATOM     39  C2  UAP d 301      12.618   6.330  17.085  0.00  0.00     0.233 C 
BRANCH  36  40
ATOM     40  C6  UAP d 301       9.304   8.105  14.938  0.00  0.00     0.200 C 
ATOM     41  O61 UAP d 301       8.497   8.904  15.430  0.00  0.00    -0.645 OA
BRANCH  40  42
ATOM     42  O62 UAP d 301       9.074   7.615  13.675  0.00  0.00    -0.771 OA
ATOM     43  H   UAP d 301       9.677   7.009  13.290  0.00  0.00     0.167 HD
ENDBRANCH  40  42
ENDBRANCH  36  40
BRANCH  38  44
ATOM     44  O3  UAP d 301      13.041   8.684  17.756  0.00  0.00    -0.389 OA
ATOM     45  H   UAP d 301      12.679   9.486  18.165  0.00  0.00     0.210 HD
ENDBRANCH  38  44
BRANCH  39  46
ATOM     46  O2  UAP d 301      11.742   5.150  17.455  0.00  0.00    -0.244 OA
BRANCH  46  47
ATOM     47  S   UAP d 301      12.614   3.858  17.923  0.00  0.00     0.252 S 
ATOM     48  O1S UAP d 301      11.685   2.791  18.292  0.00  0.00    -0.572 OA
ATOM     49  O2S UAP d 301      13.585   3.647  16.828  0.00  0.00    -0.572 OA
ATOM     50  O3S UAP d 301      13.427   4.217  19.206  0.00  0.00    -0.572 OA
ENDBRANCH  46  47
ENDBRANCH  39  46
ENDBRANCH  33  34
ENDBRANCH  22  33
BRANCH  23  51
ATOM     51  C6  SGN d 302      15.980   5.225  15.502  0.00  0.00     0.227 C 
BRANCH  51  52
ATOM     52  O6  SGN d 302      17.195   5.693  16.027  0.00  0.00    -0.254 OA
BRANCH  52  53
ATOM     53  S2  SGN d 302      17.532   4.767  17.249  0.00  0.00     0.251 S 
ATOM     54  O4S SGN d 302      18.875   5.105  17.628  0.00  0.00    -0.572 OA
ATOM     55  O5S SGN d 302      16.389   4.905  18.169  0.00  0.00    -0.572 OA
ATOM     56  O6S SGN d 302      17.586   3.297  16.801  0.00  0.00    -0.572 OA
ENDBRANCH  52  53
ENDBRANCH  51  52
ENDBRANCH  23  51
ENDBRANCH  18  19
ENDBRANCH  11  18
BRANCH  12  57
ATOM     57  O3  IDS d 303      19.353   9.089  10.334  0.00  0.00    -0.390 OA
ATOM     58  H   IDS d 303      19.723   9.253   9.452  0.00  0.00     0.210 HD
ENDBRANCH  12  57
BRANCH  13  59
ATOM     59  O2  IDS d 303      15.750   9.793   9.144  0.00  0.00    -0.244 OA
BRANCH  59  60
ATOM     60  S   IDS d 303      15.436  10.321   7.637  0.00  0.00     0.252 S 
ATOM     61  O3S IDS d 303      16.025   9.352   6.603  0.00  0.00    -0.572 OA
ATOM     62  O2S IDS d 303      16.167  11.562   7.479  0.00  0.00    -0.572 OA
ATOM     63  O1S IDS d 303      14.027  10.247   7.471  0.00  0.00    -0.572 OA
ENDBRANCH  59  60
ENDBRANCH  13  59
ENDBRANCH   7   8
ENDBRANCH   1   7
BRANCH   6  64
ATOM     64  O3  SGN d 304      20.401  12.124  12.459  0.00  0.00    -0.391 OA
ATOM     65  H   SGN d 304      19.735  12.137  13.164  0.00  0.00     0.210 HD
ENDBRANCH   6  64
BRANCH   3  66
ATOM     66  C6  SGN d 304      16.875  14.089   9.623  0.00  0.00     0.227 C 
BRANCH  66  67
ATOM     67  O6  SGN d 304      16.460  15.118   8.736  0.00  0.00    -0.254 OA
BRANCH  67  68
ATOM     68  S2  SGN d 304      14.920  14.971   8.480  0.00  0.00     0.251 S 
ATOM     69  O5S SGN d 304      14.635  13.558   8.532  0.00  0.00    -0.572 OA
ATOM     70  O6S SGN d 304      14.137  15.606   9.633  0.00  0.00    -0.572 OA
ATOM     71  O4S SGN d 304      14.652  15.749   7.302  0.00  0.00    -0.572 OA
ENDBRANCH  67  68
ENDBRANCH  66  67
ENDBRANCH   3  66
BRANCH   4  72
ATOM     72  N   SGN d 304      21.329  14.862  12.921  0.00  0.00    -0.189 NA
ATOM     73  H   SGN d 304      21.874  15.497  12.338  0.00  0.00     0.143 HD
BRANCH  72  74
ATOM     74  S1  SGN d 304      20.974  15.589  14.357  0.00  0.00     0.183 S 
ATOM     75  O1S SGN d 304      22.229  15.881  14.987  0.00  0.00    -0.582 OA
ATOM     76  O2S SGN d 304      19.987  16.643  14.028  0.00  0.00    -0.582 OA
ATOM     77  O3S SGN d 304      20.242  14.537  15.205  0.00  0.00    -0.582 OA
ENDBRANCH  72  74
ENDBRANCH   4  72
BRANCH   5  78
ATOM     78  O4  IDS d 305      21.028  15.545  10.291  0.00  0.00    -0.348 OA
BRANCH  78  79
ATOM     79  C4  IDS d 305      21.442  16.750   9.590  0.00  0.00     0.195 C 
ATOM     80  C3  IDS d 305      22.378  17.726  10.457  0.00  0.00     0.185 C 
ATOM     81  C2  IDS d 305      23.811  17.093  10.714  0.00  0.00     0.231 C 
ATOM     82  C1  IDS d 305      24.411  16.586   9.356  0.00  0.00     0.294 C 
ATOM     83  O5  IDS d 305      23.494  15.649   8.675  0.00  0.00    -0.340 OA
ATOM     84  C5  IDS d 305      22.227  16.305   8.304  0.00  0.00     0.253 C 
BRANCH  80  85
ATOM     85  O3  IDS d 305      22.604  18.883   9.676  0.00  0.00    -0.390 OA
ATOM     86  H   IDS d 305      23.042  18.633   8.848  0.00  0.00     0.210 HD
ENDBRANCH  80  85
BRANCH  81  87
ATOM     87  O2  IDS d 305      23.751  15.934  11.597  0.00  0.00    -0.244 OA
BRANCH  87  88
ATOM     88  S   IDS d 305      24.969  15.977  12.641  0.00  0.00     0.252 S 
ATOM     89  O1S IDS d 305      24.817  14.831  13.501  0.00  0.00    -0.572 OA
ATOM     90  O2S IDS d 305      26.191  16.100  11.859  0.00  0.00    -0.572 OA
ATOM     91  O3S IDS d 305      24.814  17.259  13.488  0.00  0.00    -0.572 OA
ENDBRANCH  87  88
ENDBRANCH  81  87
BRANCH  82  92
ATOM     92  O4  SGN d 306      24.842  17.700   8.470  0.00  0.00    -0.348 OA
BRANCH  92  93
ATOM     93  C4  SGN d 306      24.297  17.872   7.085  0.00  0.00     0.186 C 
ATOM     94  C3  SGN d 306      24.113  19.371   6.813  0.00  0.00     0.170 C 
ATOM     95  C2  SGN d 306      23.529  19.497   5.448  0.00  0.00     0.129 C 
ATOM     96  C1  SGN d 306      24.446  18.911   4.399  0.00  0.00     0.191 C 
ATOM     97  O5  SGN d 306      24.676  17.518   4.652  0.00  0.00    -0.379 OA
ATOM     98  C5  SGN d 306      25.242  17.319   5.966  0.00  0.00     0.178 C 
BRANCH  94  99
ATOM     99  O3  SGN d 306      23.211  19.979   7.747  0.00  0.00    -0.391 OA
ATOM    100  H   SGN d 306      23.122  20.923   7.542  0.00  0.00     0.210 HD
ENDBRANCH  94  99
BRANCH  95 101
ATOM    101  N   SGN d 306      23.306  20.864   5.172  0.00  0.00    -0.192 NA
ATOM    102  H   SGN d 306      23.595  21.414   5.981  0.00  0.00     0.142 HD
BRANCH 101 103
ATOM    103  S1  SGN d 306      21.734  21.180   4.855  0.00  0.00     0.183 S 
ATOM    104  O1S SGN d 306      21.666  22.630   4.617  0.00  0.00    -0.582 OA
ATOM    105  O2S SGN d 306      21.400  20.178   3.811  0.00  0.00    -0.582 OA
ATOM    106  O3S SGN d 306      20.916  20.778   6.124  0.00  0.00    -0.582 OA
ENDBRANCH 101 103
ENDBRANCH  95 101
BRANCH  98 107
ATOM    107  C6  SGN d 306      25.483  15.816   6.047  0.00  0.00     0.227 C 
BRANCH 107 108
ATOM    108  O6  SGN d 306      26.318  15.571   4.875  0.00  0.00    -0.254 OA
BRANCH 108 109
ATOM    109  S2  SGN d 306      26.664  14.089   4.730  0.00  0.00     0.251 S 
ATOM    110  O4S SGN d 306      26.904  13.904   3.320  0.00  0.00    -0.572 OA
ATOM    111  O5S SGN d 306      27.704  13.877   5.737  0.00  0.00    -0.572 OA
ATOM    112  O6S SGN d 306      25.449  13.224   5.125  0.00  0.00    -0.572 OA
ENDBRANCH 108 109
ENDBRANCH 107 108
ENDBRANCH  98 107
ENDBRANCH  92  93
ENDBRANCH  82  92
BRANCH  84 113
ATOM    113  C6  IDS d 305      21.383  15.345   7.492  0.00  0.00     0.172 C 
ATOM    114  O61 IDS d 305      21.786  14.203   7.241  0.00  0.00    -0.648 OA
BRANCH 113 115
ATOM    115  O62 IDS d 305      20.196  15.768   7.032  0.00  0.00    -0.774 OA
ATOM    116  H   IDS d 305      19.900  16.635   7.228  0.00  0.00     0.167 HD
ENDBRANCH 113 115
ENDBRANCH  84 113
ENDBRANCH  78  79
ENDBRANCH   5  78
TORSDOF 43
