REMARK  29 active torsions:
REMARK  status: ('A' for Active; 'I' for Inactive)
REMARK    1  A    between atoms: C5_5  and  C6_62 
REMARK    2  A    between atoms: O6_8  and  C6_62 
REMARK    3  A    between atoms: O6_8  and  S2_61 
REMARK    4  A    between atoms: O1_9  and  C1_39 
REMARK    5  A    between atoms: O1_9  and  C4_40 
REMARK    6  A    between atoms: S_11  and  O2_58 
REMARK    7  A    between atoms: O3_12  and  C3_35 
REMARK    8  A    between atoms: C6_13  and  C5_46 
REMARK    9  A    between atoms: C6_13  and  O6_41 
REMARK   10  A    between atoms: O3_15  and  C3_52 
REMARK   11  A    between atoms: S2_17  and  O6_41 
REMARK   12  A    between atoms: C5_19  and  C6_57 
REMARK   13  A    between atoms: O61_21  and  C6_57 
REMARK   14  A    between atoms: C2_22  and  O2_51 
REMARK   15  A    between atoms: C6_28  and  C5_48 
REMARK   16  A    between atoms: C6_28  and  O62_66 
REMARK   17  A    between atoms: C1_30  and  O4_32 
REMARK   18  A    between atoms: C2_31  and  N_44 
REMARK   19  A    between atoms: O4_32  and  C4_38 
REMARK   20  A    between atoms: S_34  and  O2_51 
REMARK   21  A    between atoms: S1_36  and  N_59 
REMARK   22  A    between atoms: C1_37  and  O4_67 
REMARK   23  A    between atoms: O1_42  and  C1_54 
REMARK   24  A    between atoms: N_44  and  S1_53 
REMARK   25  A    between atoms: O3_45  and  C3_63 
REMARK   26  A    between atoms: O3_47  and  C3_60 
REMARK   27  A    between atoms: C2_49  and  O2_58 
REMARK   28  A    between atoms: C4_50  and  O4_67 
REMARK   29  A    between atoms: N_59  and  C2_69 
ROOT
ATOM      1  C5  IDS d 803     -28.395  81.829  18.089  0.00  0.00     0.253 C 
ATOM      2  O5  IDS d 803     -28.303  81.791  19.522  0.00  0.00    -0.340 OA
ATOM      3  C1  IDS d 803     -27.439  82.790  20.087  0.00  0.00     0.294 C 
ATOM      4  C4  IDS d 803     -28.967  83.179  17.652  0.00  0.00     0.195 C 
ATOM      5  C2  IDS d 803     -27.927  84.183  19.690  0.00  0.00     0.231 C 
ATOM      6  C3  IDS d 803     -28.052  84.288  18.170  0.00  0.00     0.185 C 
ENDROOT
BRANCH   4   7
ATOM      7  O1  SGN d 802     -30.283  83.339  18.190  0.00  0.00    -0.348 OA
BRANCH   7   8
ATOM      8  C1  SGN d 802     -31.232  83.910  17.285  0.00  0.00     0.282 C 
ATOM      9  O5  SGN d 802     -31.851  82.905  16.468  0.00  0.00    -0.349 OA
ATOM     10  C5  SGN d 802     -32.605  81.916  17.189  0.00  0.00     0.181 C 
ATOM     11  C4  SGN d 802     -33.721  82.609  17.977  0.00  0.00     0.186 C 
ATOM     12  C3  SGN d 802     -33.110  83.647  18.908  0.00  0.00     0.173 C 
ATOM     13  C2  SGN d 802     -32.320  84.642  18.068  0.00  0.00     0.160 C 
BRANCH  10  14
ATOM     14  C6  SGN d 802     -33.203  80.951  16.176  0.00  0.00     0.227 C 
BRANCH  14  15
ATOM     15  O6  SGN d 802     -33.938  81.714  15.222  0.00  0.00    -0.254 OA
BRANCH  15  16
ATOM     16  S2  SGN d 802     -34.747  80.917  13.874  0.00  0.00     0.251 S 
ATOM     17  O6S SGN d 802     -33.748  80.190  13.067  0.00  0.00    -0.572 OA
ATOM     18  O5S SGN d 802     -35.410  81.936  13.039  0.00  0.00    -0.572 OA
ATOM     19  O4S SGN d 802     -35.753  79.970  14.396  0.00  0.00    -0.572 OA
ENDBRANCH  15  16
ENDBRANCH  14  15
ENDBRANCH  10  14
BRANCH  11  20
ATOM     20  O4  SGN d 802     -34.435  81.649  18.758  0.00  0.00    -0.348 OA
BRANCH  20  21
ATOM     21  C1  UAP d 801     -35.707  81.271  18.227  0.00  0.00     0.300 C 
ATOM     22  O5  UAP d 801     -36.622  82.368  18.201  0.00  0.00    -0.311 OA
ATOM     23  C5  UAP d 801     -37.101  82.788  19.391  0.00  0.00     0.144 C 
ATOM     24  C4  UAP d 801     -37.106  81.999  20.486  0.00  0.00     0.051 C 
ATOM     25  C3  UAP d 801     -36.607  80.640  20.486  0.00  0.00     0.179 C 
ATOM     26  C2  UAP d 801     -36.298  80.154  19.074  0.00  0.00     0.233 C 
BRANCH  23  27
ATOM     27  C6  UAP d 801     -37.602  84.021  19.484  0.00  0.00     0.200 C 
ATOM     28  O61 UAP d 801     -38.062  84.419  20.580  0.00  0.00    -0.645 OA
BRANCH  27  29
ATOM     29  O62 UAP d 801     -37.616  84.755  18.469  0.00  0.00    -0.771 OA
ENDBRANCH  27  29
ENDBRANCH  23  27
BRANCH  25  31
ATOM     31  O3  UAP d 801     -35.457  80.553  21.298  0.00  0.00    -0.389 OA
ATOM     32  H   UAP d 801     -35.668  80.865  22.192  0.00  0.00     0.210 HD
ENDBRANCH  25  31
BRANCH  26  33
ATOM     33  O2  UAP d 801     -37.496  79.676  18.465  0.00  0.00    -0.244 OA
BRANCH  33  34
ATOM     34  S   UAP d 801     -37.770  77.936  18.312  0.00  0.00     0.252 S 
ATOM     35  O2S UAP d 801     -37.896  77.333  19.652  0.00  0.00    -0.572 OA
ATOM     36  O1S UAP d 801     -39.010  77.700  17.550  0.00  0.00    -0.572 OA
ATOM     37  O3S UAP d 801     -36.632  77.321  17.604  0.00  0.00    -0.572 OA
ENDBRANCH  33  34
ENDBRANCH  26  33
ENDBRANCH  20  21
ENDBRANCH  11  20
BRANCH  12  38
ATOM     38  O3  SGN d 802     -34.126  84.315  19.622  0.00  0.00    -0.391 OA
ATOM     39  H   SGN d 802     -33.727  84.974  20.212  0.00  0.00     0.210 HD
ENDBRANCH  12  38
BRANCH  13  40
ATOM     40  N   SGN d 802     -31.736  85.661  18.914  0.00  0.00    -0.189 NA
ATOM     41  H   SGN d 802     -30.808  85.332  19.182  0.00  0.00     0.143 HD
BRANCH  40  42
ATOM     42  S1  SGN d 802     -31.542  87.296  18.271  0.00  0.00     0.183 S 
ATOM     43  O3S SGN d 802     -30.364  87.334  17.385  0.00  0.00    -0.582 OA
ATOM     44  O1S SGN d 802     -31.352  88.241  19.386  0.00  0.00    -0.582 OA
ATOM     45  O2S SGN d 802     -32.746  87.671  17.504  0.00  0.00    -0.582 OA
ENDBRANCH  40  42
ENDBRANCH  13  40
ENDBRANCH   7   8
ENDBRANCH   4   7
BRANCH   1  46
ATOM     46  C6  IDS d 803     -29.325  80.708  17.653  0.00  0.00     0.172 C 
ATOM     47  O62 IDS d 803     -30.201  80.311  18.451  0.00  0.00    -0.648 OA
BRANCH  46  48
ATOM     48  O61 IDS d 803     -29.164  80.202  16.521  0.00  0.00    -0.774 OA
ENDBRANCH  46  48
ENDBRANCH   1  46
BRANCH   6  50
ATOM     50  O3  IDS d 803     -26.784  84.219  17.553  0.00  0.00    -0.390 OA
ATOM     51  H   IDS d 803     -26.888  84.288  16.591  0.00  0.00     0.210 HD
ENDBRANCH   6  50
BRANCH   5  52
ATOM     52  O2  IDS d 803     -29.169  84.475  20.327  0.00  0.00    -0.244 OA
BRANCH  52  53
ATOM     53  S   IDS d 803     -29.253  85.802  21.492  0.00  0.00     0.252 S 
ATOM     54  O3S IDS d 803     -28.836  85.319  22.823  0.00  0.00    -0.572 OA
ATOM     55  O1S IDS d 803     -30.637  86.306  21.564  0.00  0.00    -0.572 OA
ATOM     56  O2S IDS d 803     -28.353  86.890  21.065  0.00  0.00    -0.572 OA
ENDBRANCH  52  53
ENDBRANCH   5  52
BRANCH   3  57
ATOM     57  O4  SGN d 804     -26.072  82.596  19.719  0.00  0.00    -0.348 OA
BRANCH  57  58
ATOM     58  C4  SGN d 804     -25.419  81.576  20.477  0.00  0.00     0.186 C 
ATOM     59  C3  SGN d 804     -25.170  80.367  19.581  0.00  0.00     0.173 C 
ATOM     60  C2  SGN d 804     -24.424  79.303  20.375  0.00  0.00     0.160 C 
ATOM     61  C1  SGN d 804     -23.116  79.884  20.914  0.00  0.00     0.278 C 
ATOM     62  O5  SGN d 804     -23.401  81.048  21.706  0.00  0.00    -0.350 OA
ATOM     63  C5  SGN d 804     -24.076  82.096  20.990  0.00  0.00     0.181 C 
BRANCH  59  64
ATOM     64  O3  SGN d 804     -26.396  79.842  19.123  0.00  0.00    -0.391 OA
ATOM     65  H   SGN d 804     -26.227  79.074  18.555  0.00  0.00     0.210 HD
ENDBRANCH  59  64
BRANCH  60  66
ATOM     66  N   SGN d 804     -24.146  78.178  19.503  0.00  0.00    -0.189 NA
ATOM     67  H   SGN d 804     -25.025  77.941  19.043  0.00  0.00     0.143 HD
BRANCH  66  68
ATOM     68  S1  SGN d 804     -23.496  76.670  20.160  0.00  0.00     0.183 S 
ATOM     69  O2S SGN d 804     -24.419  75.559  19.859  0.00  0.00    -0.582 OA
ATOM     70  O3S SGN d 804     -23.341  76.798  21.623  0.00  0.00    -0.582 OA
ATOM     71  O1S SGN d 804     -22.183  76.396  19.547  0.00  0.00    -0.582 OA
ENDBRANCH  66  68
ENDBRANCH  60  66
BRANCH  61  72
ATOM     72  O1  SGN d 804     -22.230  80.195  19.837  0.00  0.00    -0.369 OA
ATOM     73  H   SGN d 804     -21.405  80.562  20.192  0.00  0.00     0.212 HD
ENDBRANCH  61  72
BRANCH  63  74
ATOM     74  C6  SGN d 804     -24.240  83.328  21.875  0.00  0.00     0.227 C 
BRANCH  74  75
ATOM     75  O6  SGN d 804     -24.927  82.979  23.075  0.00  0.00    -0.254 OA
BRANCH  75  76
ATOM     76  S2  SGN d 804     -25.257  84.230  24.282  0.00  0.00     0.251 S 
ATOM     77  O4S SGN d 804     -24.038  85.027  24.512  0.00  0.00    -0.572 OA
ATOM     78  O5S SGN d 804     -26.333  85.113  23.793  0.00  0.00    -0.572 OA
ATOM     79  O6S SGN d 804     -25.677  83.596  25.546  0.00  0.00    -0.572 OA
ENDBRANCH  75  76
ENDBRANCH  74  75
ENDBRANCH  63  74
ENDBRANCH  57  58
ENDBRANCH   3  57
TORSDOF 29
