REMARK  29 active torsions:
REMARK  status: ('A' for Active; 'I' for Inactive)
REMARK    1  A    between atoms: C2_4  and  N_26 
REMARK    2  A    between atoms: O2_5  and  C2_33 
REMARK    3  A    between atoms: O2_5  and  S_35 
REMARK    4  A    between atoms: S1_6  and  N_52 
REMARK    5  A    between atoms: O3_9  and  C3_14 
REMARK    6  A    between atoms: O6_11  and  C6_48 
REMARK    7  A    between atoms: O6_11  and  S2_64 
REMARK    8  A    between atoms: O1_15  and  C1_60 
REMARK    9  A    between atoms: C5_16  and  C6_37 
REMARK   10  A    between atoms: C1_17  and  O4_70 
REMARK   11  A    between atoms: C4_20  and  O4_23 
REMARK   12  A    between atoms: C5_21  and  C6_30 
REMARK   13  A    between atoms: O4_23  and  C1_38 
REMARK   14  A    between atoms: N_26  and  S1_56 
REMARK   15  A    between atoms: C2_27  and  O2_44 
REMARK   16  A    between atoms: C6_30  and  O62_50 
REMARK   17  A    between atoms: C5_31  and  C6_53 
REMARK   18  A    between atoms: C3_34  and  O3_36 
REMARK   19  A    between atoms: C6_37  and  O62_45 
REMARK   20  A    between atoms: S2_39  and  O6_68 
REMARK   21  A    between atoms: C3_43  and  O3_49 
REMARK   22  A    between atoms: O2_44  and  S_46 
REMARK   23  A    between atoms: C6_48  and  C5_55 
REMARK   24  A    between atoms: C2_51  and  N_52 
REMARK   25  A    between atoms: C6_53  and  O6_68 
REMARK   26  A    between atoms: C1_54  and  O1_66 
REMARK   27  A    between atoms: C4_58  and  O4_70 
REMARK   28  A    between atoms: C4_59  and  O1_66 
REMARK   29  A    between atoms: C3_62  and  O3_63 
ROOT
ATOM      1  C3  IDS d 903       2.267  53.785 -14.090  0.00  0.00     0.185 C 
ATOM      2  C5  IDS d 903       2.484  56.125 -15.018  0.00  0.00     0.253 C 
ATOM      3  O5  IDS d 903       3.386  55.397 -15.837  0.00  0.00    -0.340 OA
ATOM      4  C2  IDS d 903       3.714  54.099 -13.791  0.00  0.00     0.231 C 
ATOM      5  C1  IDS d 903       4.356  54.677 -15.060  0.00  0.00     0.294 C 
ATOM      6  C4  IDS d 903       1.539  55.107 -14.366  0.00  0.00     0.195 C 
ENDROOT
BRANCH   6   7
ATOM      7  O1  SGN d 902       0.459  54.866 -15.269  0.00  0.00    -0.348 OA
BRANCH   7   8
ATOM      8  C1  SGN d 902      -0.649  54.144 -14.727  0.00  0.00     0.282 C 
ATOM      9  C2  SGN d 902      -1.706  53.954 -15.812  0.00  0.00     0.160 C 
ATOM     10  C3  SGN d 902      -2.281  55.309 -16.204  0.00  0.00     0.173 C 
ATOM     11  C4  SGN d 902      -2.878  55.960 -14.964  0.00  0.00     0.186 C 
ATOM     12  C5  SGN d 902      -1.793  56.109 -13.896  0.00  0.00     0.181 C 
ATOM     13  O5  SGN d 902      -1.239  54.816 -13.606  0.00  0.00    -0.349 OA
BRANCH   9  14
ATOM     14  N   SGN d 902      -1.103  53.330 -16.972  0.00  0.00    -0.189 NA
ATOM     15  H   SGN d 902      -0.197  53.778 -17.112  0.00  0.00     0.143 HD
BRANCH  14  16
ATOM     16  S1  SGN d 902      -0.819  51.584 -16.976  0.00  0.00     0.183 S 
ATOM     17  O1S SGN d 902       0.061  51.234 -18.106  0.00  0.00    -0.582 OA
ATOM     18  O2S SGN d 902      -2.107  50.880 -17.116  0.00  0.00    -0.582 OA
ATOM     19  O3S SGN d 902      -0.179  51.185 -15.709  0.00  0.00    -0.582 OA
ENDBRANCH  14  16
ENDBRANCH   9  14
BRANCH  10  20
ATOM     20  O3  SGN d 902      -3.275  55.141 -17.189  0.00  0.00    -0.391 OA
ATOM     21  H   SGN d 902      -3.983  54.577 -16.841  0.00  0.00     0.210 HD
ENDBRANCH  10  20
BRANCH  11  22
ATOM     22  O4  SGN d 902      -3.389  57.247 -15.314  0.00  0.00    -0.348 OA
BRANCH  22  23
ATOM     23  C1  UAP d 901      -4.651  57.553 -14.723  0.00  0.00     0.300 C 
ATOM     24  C2  UAP d 901      -4.941  59.039 -14.886  0.00  0.00     0.233 C 
ATOM     25  C3  UAP d 901      -5.363  59.422 -16.305  0.00  0.00     0.179 C 
ATOM     26  C4  UAP d 901      -5.779  58.290 -17.107  0.00  0.00     0.051 C 
ATOM     27  C5  UAP d 901      -5.934  57.050 -16.609  0.00  0.00     0.144 C 
ATOM     28  O5  UAP d 901      -5.700  56.790 -15.314  0.00  0.00    -0.311 OA
BRANCH  24  29
ATOM     29  O2  UAP d 901      -5.956  59.435 -13.967  0.00  0.00    -0.244 OA
BRANCH  29  30
ATOM     30  S   UAP d 901      -5.865  61.026 -13.203  0.00  0.00     0.252 S 
ATOM     31  O2S UAP d 901      -5.787  62.068 -14.243  0.00  0.00    -0.572 OA
ATOM     32  O3S UAP d 901      -4.662  61.091 -12.352  0.00  0.00    -0.572 OA
ATOM     33  O1S UAP d 901      -7.066  61.245 -12.376  0.00  0.00    -0.572 OA
ENDBRANCH  29  30
ENDBRANCH  24  29
BRANCH  25  34
ATOM     34  O3  UAP d 901      -4.321  60.116 -16.957  0.00  0.00    -0.389 OA
ATOM     35  H   UAP d 901      -3.551  59.533 -17.046  0.00  0.00     0.210 HD
ENDBRANCH  25  34
BRANCH  27  36
ATOM     36  C6  UAP d 901      -6.338  56.070 -17.418  0.00  0.00     0.200 C 
ATOM     37  O61 UAP d 901      -6.564  56.325 -18.623  0.00  0.00    -0.645 OA
BRANCH  36  38
ATOM     38  O62 UAP d 901      -6.492  54.920 -16.954  0.00  0.00    -0.771 OA
ENDBRANCH  36  38
ENDBRANCH  27  36
ENDBRANCH  22  23
ENDBRANCH  11  22
BRANCH  12  40
ATOM     40  C6  SGN d 902      -2.394  56.664 -12.612  0.00  0.00     0.227 C 
BRANCH  40  41
ATOM     41  O6  SGN d 902      -3.269  55.682 -12.060  0.00  0.00    -0.254 OA
BRANCH  41  42
ATOM     42  S2  SGN d 902      -4.564  56.167 -10.964  0.00  0.00     0.251 S 
ATOM     43  O4S SGN d 902      -5.737  55.297 -11.174  0.00  0.00    -0.572 OA
ATOM     44  O6S SGN d 902      -4.935  57.569 -11.235  0.00  0.00    -0.572 OA
ATOM     45  O5S SGN d 902      -4.091  56.036  -9.572  0.00  0.00    -0.572 OA
ENDBRANCH  41  42
ENDBRANCH  40  41
ENDBRANCH  12  40
ENDBRANCH   7   8
ENDBRANCH   6   7
BRANCH   1  46
ATOM     46  O3  IDS d 903       1.684  53.157 -12.969  0.00  0.00    -0.390 OA
ATOM     47  H   IDS d 903       2.142  52.321 -12.792  0.00  0.00     0.210 HD
ENDBRANCH   1  46
BRANCH   2  48
ATOM     48  C6  IDS d 903       1.696  57.052 -15.923  0.00  0.00     0.172 C 
ATOM     49  O61 IDS d 903       0.932  57.881 -15.395  0.00  0.00    -0.648 OA
BRANCH  48  50
ATOM     50  O62 IDS d 903       1.849  56.955 -17.162  0.00  0.00    -0.774 OA
ENDBRANCH  48  50
ENDBRANCH   2  48
BRANCH   4  52
ATOM     52  O2  IDS d 903       4.380  52.879 -13.486  0.00  0.00    -0.244 OA
BRANCH  52  53
ATOM     53  S   IDS d 903       5.100  52.636 -11.896  0.00  0.00     0.252 S 
ATOM     54  O3S IDS d 903       4.071  52.096 -10.983  0.00  0.00    -0.572 OA
ATOM     55  O1S IDS d 903       6.213  51.676 -12.005  0.00  0.00    -0.572 OA
ATOM     56  O2S IDS d 903       5.597  53.922 -11.375  0.00  0.00    -0.572 OA
ENDBRANCH  52  53
ENDBRANCH   4  52
BRANCH   5  57
ATOM     57  O4  SGN d 904       5.382  55.575 -14.645  0.00  0.00    -0.348 OA
BRANCH  57  58
ATOM     58  C4  SGN d 904       6.347  55.887 -15.646  0.00  0.00     0.186 C 
ATOM     59  C3  SGN d 904       6.399  57.401 -15.783  0.00  0.00     0.173 C 
ATOM     60  C2  SGN d 904       7.524  57.761 -16.734  0.00  0.00     0.160 C 
ATOM     61  C1  SGN d 904       8.844  57.211 -16.212  0.00  0.00     0.278 C 
ATOM     62  O5  SGN d 904       8.725  55.791 -16.081  0.00  0.00    -0.350 OA
ATOM     63  C5  SGN d 904       7.704  55.366 -15.172  0.00  0.00     0.181 C 
BRANCH  59  64
ATOM     64  O3  SGN d 904       5.184  57.881 -16.313  0.00  0.00    -0.391 OA
ATOM     65  H   SGN d 904       5.033  57.485 -17.185  0.00  0.00     0.210 HD
ENDBRANCH  59  64
BRANCH  60  66
ATOM     66  N   SGN d 904       7.620  59.195 -16.840  0.00  0.00    -0.189 NA
ATOM     67  H   SGN d 904       6.670  59.563 -16.885  0.00  0.00     0.143 HD
BRANCH  66  68
ATOM     68  S1  SGN d 904       8.504  59.848 -18.214  0.00  0.00     0.183 S 
ATOM     69  O1S SGN d 904       9.942  59.886 -17.895  0.00  0.00    -0.582 OA
ATOM     70  O2S SGN d 904       8.014  61.209 -18.508  0.00  0.00    -0.582 OA
ATOM     71  O3S SGN d 904       8.275  58.968 -19.374  0.00  0.00    -0.582 OA
ENDBRANCH  66  68
ENDBRANCH  60  66
BRANCH  61  72
ATOM     72  O1  SGN d 904       9.144  57.816 -14.951  0.00  0.00    -0.369 OA
ATOM     73  H   SGN d 904       9.220  58.776 -15.063  0.00  0.00     0.212 HD
ENDBRANCH  61  72
BRANCH  63  74
ATOM     74  C6  SGN d 904       7.695  53.850 -15.189  0.00  0.00     0.227 C 
BRANCH  74  75
ATOM     75  O6  SGN d 904       7.602  53.444 -16.553  0.00  0.00    -0.254 OA
BRANCH  75  76
ATOM     76  S2  SGN d 904       7.083  51.809 -16.941  0.00  0.00     0.251 S 
ATOM     77  O6S SGN d 904       5.919  51.459 -16.104  0.00  0.00    -0.572 OA
ATOM     78  O4S SGN d 904       6.715  51.736 -18.368  0.00  0.00    -0.572 OA
ATOM     79  O5S SGN d 904       8.186  50.875 -16.663  0.00  0.00    -0.572 OA
ENDBRANCH  75  76
ENDBRANCH  74  75
ENDBRANCH  63  74
ENDBRANCH  57  58
ENDBRANCH   5  57
TORSDOF 29
