REMARK  18 active torsions:
REMARK  status: ('A' for Active; 'I' for Inactive)
REMARK    1  A    between atoms: C6_1  and  C5_35 
REMARK    2  A    between atoms: C6_1  and  O6_12 
REMARK    3  A    between atoms: N_2  and  S1_19 
REMARK    4  A    between atoms: N_2  and  C2_29 
REMARK    5  A    between atoms: O1S_4  and  S1_19 
REMARK    6  A    between atoms: O3_7  and  C3_32 
REMARK    7  A    between atoms: S2_8  and  O6_12 
REMARK    8  A    between atoms: S3_15  and  O3_28 
REMARK    9  A    between atoms: C2_16  and  O2_38 
REMARK   10  A    between atoms: C1_17  and  O4_40 
REMARK   11  A    between atoms: C3_18  and  O3_28 
REMARK   12  A    between atoms: S1_19  and  O2S_21 
REMARK   13  A    between atoms: S1_19  and  O3S_36 
REMARK   14  A    between atoms: O4_20  and  C4_23 
REMARK   15  A    between atoms: C1_22  and  O1_33 
REMARK   16  A    between atoms: C5_25  and  C6_39 
REMARK   17  A    between atoms: C4_27  and  O4_40 
REMARK   18  A    between atoms: S_37  and  O2_38 
ROOT
ATOM      1  O5  SUS d 141      -2.257  13.707  16.963  0.00  0.00    -0.349 OA
ATOM      2  C1  SUS d 141      -2.321  12.358  17.367  0.00  0.00     0.282 C 
ATOM      3  C3  SUS d 141      -0.947  11.757  15.351  0.00  0.00     0.199 C 
ATOM      4  C4  SUS d 141      -0.791  13.256  15.121  0.00  0.00     0.181 C 
ATOM      5  C2  SUS d 141      -2.214  11.456  16.143  0.00  0.00     0.159 C 
ATOM      6  C5  SUS d 141      -0.999  14.033  16.416  0.00  0.00     0.181 C 
ENDROOT
BRANCH   2   7
ATOM      7  O4  IDY d 142      -1.256  12.081  18.248  0.00  0.00    -0.348 OA
BRANCH   7   8
ATOM      8  C4  IDY d 142      -0.686  12.518  19.810  0.00  0.00     0.195 C 
ATOM      9  C5  IDY d 142       0.700  12.514  20.456  0.00  0.00     0.257 C 
ATOM     10  O5  IDY d 142       1.278  11.179  20.560  0.00  0.00    -0.340 OA
ATOM     11  C1  IDY d 142       0.494  10.029  20.969  0.00  0.00     0.293 C 
ATOM     12  C2  IDY d 142      -0.866   9.921  20.318  0.00  0.00     0.231 C 
ATOM     13  C3  IDY d 142      -1.434  11.299  20.270  0.00  0.00     0.185 C 
BRANCH   9  14
ATOM     14  C6  IDY d 142       1.604  13.392  19.612  0.00  0.00     0.206 C 
ATOM     15  O61 IDY d 142       2.210  12.929  18.585  0.00  0.00    -0.646 OA
ATOM     16  O62 IDY d 142       1.858  14.649  19.950  0.00  0.00    -0.646 OA
ENDBRANCH   9  14
BRANCH  11  17
ATOM     17  O1  IDY d 142       0.117  10.004  22.413  0.00  0.00    -0.363 OA
ATOM     18  C7  IDY d 142       1.406  10.630  22.955  0.00  0.00     0.204 C 
ENDBRANCH  11  17
BRANCH  12  19
ATOM     19  O2  IDY d 142      -0.684   9.304  19.015  0.00  0.00    -0.244 OA
BRANCH  19  20
ATOM     20  S   IDY d 142      -0.383   7.784  18.953  0.00  0.00     0.252 S 
ATOM     21  OS3 IDY d 142       0.609   7.378  19.990  0.00  0.00    -0.572 OA
ATOM     22  OS2 IDY d 142      -1.627   7.035  19.218  0.00  0.00    -0.572 OA
ATOM     23  OS1 IDY d 142       0.142   7.466  17.600  0.00  0.00    -0.572 OA
ENDBRANCH  19  20
ENDBRANCH  12  19
BRANCH  13  24
ATOM     24  O3  IDY d 142      -2.744  11.479  20.996  0.00  0.00    -0.390 OA
ATOM     25  H   IDY d 142      -3.107  10.610  21.229  0.00  0.00     0.210 HD
ENDBRANCH  13  24
ENDBRANCH   7   8
ENDBRANCH   2   7
BRANCH   5  26
ATOM     26  N   SUS d 141      -2.226  10.065  16.549  0.00  0.00    -0.210 NA
ATOM     27  H   SUS d 141      -1.460   9.607  16.054  0.00  0.00     0.140 HD
BRANCH  26  28
ATOM     28  S1  SUS d 141      -3.531   9.172  16.307  0.00  0.00     0.156 S 
BRANCH  28  29
ATOM     29  O1S SUS d 141      -4.676   9.979  16.717  0.00  0.00    -0.296 OA
ATOM     30  H   SUS d 141      -4.741  10.761  16.147  0.00  0.00     0.231 HD
ENDBRANCH  28  29
BRANCH  28  31
ATOM     31  O2S SUS d 141      -3.561   8.849  14.883  0.00  0.00    -0.296 OA
ATOM     32  H   SUS d 141      -3.659   9.665  14.368  0.00  0.00     0.231 HD
ENDBRANCH  28  31
BRANCH  28  33
ATOM     33  O3S SUS d 141      -3.385   7.977  17.133  0.00  0.00    -0.296 OA
ATOM     34  H   SUS d 141      -3.369   8.231  18.069  0.00  0.00     0.231 HD
ENDBRANCH  28  33
ENDBRANCH  26  28
ENDBRANCH   5  26
BRANCH   6  35
ATOM     35  C6  SUS d 141      -0.924  15.534  16.171  0.00  0.00     0.227 C 
BRANCH  35  36
ATOM     36  O6  SUS d 141      -2.137  16.135  16.563  0.00  0.00    -0.254 OA
BRANCH  36  37
ATOM     37  S2  SUS d 141      -2.752  17.284  15.705  0.00  0.00     0.251 S 
ATOM     38  O4S SUS d 141      -2.072  17.266  14.413  0.00  0.00    -0.572 OA
ATOM     39  O5S SUS d 141      -4.172  16.988  15.544  0.00  0.00    -0.572 OA
ATOM     40  O6S SUS d 141      -2.527  18.531  16.431  0.00  0.00    -0.572 OA
ENDBRANCH  36  37
ENDBRANCH  35  36
ENDBRANCH   6  35
BRANCH   3  41
ATOM     41  O3  SUS d 141      -1.001  11.094  14.109  0.00  0.00    -0.247 OA
BRANCH  41  42
ATOM     42  S3  SUS d 141      -0.430   9.831  13.778  0.00  0.00     0.252 S 
ATOM     43  O7S SUS d 141       0.773  10.136  13.048  0.00  0.00    -0.572 OA
ATOM     44  O8S SUS d 141      -0.086   8.840  14.771  0.00  0.00    -0.572 OA
ATOM     45  O9S SUS d 141      -1.349   9.276  12.808  0.00  0.00    -0.572 OA
ENDBRANCH  41  42
ENDBRANCH   3  41
BRANCH   4  46
ATOM     46  O4  SUS d 141       0.499  13.522  14.616  0.00  0.00    -0.390 OA
ATOM     47  H   SUS d 141       0.632  13.028  13.792  0.00  0.00     0.210 HD
ENDBRANCH   4  46
TORSDOF 18
