REMARK 16 active torsions
REMARK    1  A    between atoms: atom1  and  atom_
REMARK    2  A    between atoms: atom5  and  atom_
REMARK    3  A    between atoms: atom1  and  atom6
REMARK    4  A    between atoms: atom1  and  atom8
REMARK    5  A    between atoms: atom6  and  atom_
REMARK    6  A    between atoms: atom3  and  atom6
REMARK    7  A    between atoms: atom1  and  atom_
REMARK    8  A    between atoms: atom4  and  atom4
REMARK    9  A    between atoms: atom4  and  atom5
REMARK    10  A    between atoms: atom5  and  atom5
REMARK    11  A    between atoms: atom6  and  atom1
REMARK    12  A    between atoms: atom7  and  atom2
REMARK    13  A    between atoms: atom8  and  atom_
REMARK    14  A    between atoms: atom3  and  atom2
REMARK    15  A    between atoms: atom6  and  atom4
REMARK    16  A    between atoms: atom7  and  atom8
ROOT
ATOM      1  O4  IDS d   3      25.961 -42.302  33.783  0.00  0.00    -0.348 OA
ENDROOT
BRANCH   1   2
ATOM      2  C1  SGN d   2      26.938 -41.664  33.037  0.00  0.00     0.282 C 
ATOM      3  C2  SGN d   2      27.687 -40.630  33.881  0.00  0.00     0.160 C 
ATOM      4  C3  SGN d   2      26.748 -39.510  34.334  0.00  0.00     0.173 C 
ATOM      5  C4  SGN d   2      26.065 -38.906  33.106  0.00  0.00     0.186 C 
ATOM      6  C5  SGN d   2      25.371 -39.995  32.283  0.00  0.00     0.181 C 
ATOM      7  O5  SGN d   2      26.322 -41.008  31.915  0.00  0.00    -0.349 OA
ATOM      8  N   SGN d   2      28.317 -41.264  35.049  0.00  0.00    -0.189 NA
ATOM      9  H   SGN d   2      27.742 -42.050  35.354  0.00  0.00     0.143 HD
ATOM     14  O3  SGN d   2      27.510 -38.500  35.001  0.00  0.00    -0.391 OA
ATOM     15  H   SGN d   2      28.180 -38.147  34.395  0.00  0.00     0.210 HD
BRANCH   5  16
ATOM     16  O4  SGN d   2      25.117 -37.918  33.522  0.00  0.00    -0.348 OA
BRANCH  16  17
ATOM     17  C1  IDS d   1      25.178 -36.652  32.922  0.00  0.00     0.294 C 
ATOM     18  C2  IDS d   1      24.014 -35.764  33.376  0.00  0.00     0.231 C 
ATOM     19  C3  IDS d   1      24.112 -35.486  34.877  0.00  0.00     0.185 C 
ATOM     20  C4  IDS d   1      25.495 -34.921  35.210  0.00  0.00     0.189 C 
ATOM     21  C5  IDS d   1      26.601 -35.827  34.660  0.00  0.00     0.253 C 
ATOM     22  O5  IDS d   1      26.435 -36.033  33.247  0.00  0.00    -0.340 OA
ATOM     28  O3  IDS d   1      23.868 -36.691  35.610  0.00  0.00    -0.390 OA
ATOM     29  H   IDS d   1      24.531 -37.356  35.368  0.00  0.00     0.210 HD
ATOM     30  O4  IDS d   1      25.626 -33.599  34.678  0.00  0.00    -0.390 OA
ATOM     31  H   IDS d   1      25.535 -33.629  33.713  0.00  0.00     0.210 HD
ATOM     32  C6  IDS d   1      27.970 -35.181  34.901  0.00  0.00     0.172 C 
ATOM     33  O61 IDS d   1      28.784 -35.154  33.950  0.00  0.00    -0.648 OA
BRANCH  18  23
ATOM     23  O2  IDS d   1      24.067 -34.518  32.672  0.00  0.00    -0.244 OA
ATOM     24  S   IDS d   1      22.791 -34.148  32.138  0.00  0.00     0.252 S 
ATOM     25  O1S IDS d   1      22.991 -33.182  31.008  0.00  0.00    -0.572 OA
ATOM     26  O2S IDS d   1      21.953 -33.501  33.200  0.00  0.00    -0.572 OA
ATOM     27  O3S IDS d   1      22.084 -35.366  31.625  0.00  0.00    -0.572 OA
ENDBRANCH  18  23
BRANCH  32  34
ATOM     34  O62 IDS d   1      28.221 -34.736  36.039  0.00  0.00    -0.774 OA
ENDBRANCH  32  34
ENDBRANCH  16  17
ENDBRANCH   5  16
BRANCH   6  36
ATOM     36  C6  SGN d   2      24.813 -39.372  31.000  0.00  0.00     0.227 C 
BRANCH  36  37
ATOM     37  O6  SGN d   2      25.876 -38.839  30.204  0.00  0.00    -0.254 OA
ATOM     38  S2  SGN d   2      25.592 -38.107  29.009  0.00  0.00     0.251 S 
ATOM     39  O5S SGN d   2      26.836 -37.421  28.530  0.00  0.00    -0.572 OA
ATOM     40  O6S SGN d   2      25.102 -39.043  27.944  0.00  0.00    -0.572 OA
ATOM     41  O4S SGN d   2      24.537 -37.079  29.296  0.00  0.00    -0.572 OA
ENDBRANCH  36  37
ENDBRANCH   6  36
BRANCH   8  10
ATOM     10  S1  SGN d   2      29.810 -41.806  34.680  0.00  0.00     0.183 S 
ATOM     11  O2S SGN d   2      30.409 -42.461  35.890  0.00  0.00    -0.582 OA
ATOM     12  O3S SGN d   2      29.720 -42.806  33.565  0.00  0.00    -0.582 OA
ATOM     13  O1S SGN d   2      30.678 -40.654  34.269  0.00  0.00    -0.582 OA
ENDBRANCH   8  10
ENDBRANCH   1   2
BRANCH   1  42
ATOM     42  C4  IDS d   3      25.522 -43.578  33.308  0.00  0.00     0.195 C 
ATOM     43  C3  IDS d   3      26.321 -44.701  33.976  0.00  0.00     0.185 C 
ATOM     44  C2  IDS d   3      25.977 -44.793  35.464  0.00  0.00     0.231 C 
ATOM     45  C1  IDS d   3      24.461 -44.878  35.663  0.00  0.00     0.294 C 
ATOM     46  O5  IDS d   3      23.808 -43.776  35.012  0.00  0.00    -0.340 OA
ATOM     47  C5  IDS d   3      24.033 -43.777  33.594  0.00  0.00     0.253 C 
ATOM     48  O3  IDS d   3      26.030 -45.945  33.332  0.00  0.00    -0.390 OA
ATOM     49  H   IDS d   3      26.250 -45.880  32.389  0.00  0.00     0.210 HD
ATOM     78  C6  IDS d   3      23.216 -42.638  32.979  0.00  0.00     0.172 C 
ATOM     79  O61 IDS d   3      22.706 -41.806  33.752  0.00  0.00    -0.648 OA
BRANCH  44  50
ATOM     50  O2  IDS d   3      26.454 -43.624  36.140  0.00  0.00    -0.244 OA
ATOM     51  S   IDS d   3      27.002 -43.927  37.427  0.00  0.00     0.252 S 
ATOM     52  O1S IDS d   3      28.351 -44.560  37.252  0.00  0.00    -0.572 OA
ATOM     53  O2S IDS d   3      26.099 -44.852  38.187  0.00  0.00    -0.572 OA
ATOM     54  O3S IDS d   3      27.136 -42.653  38.208  0.00  0.00    -0.572 OA
ENDBRANCH  44  50
BRANCH  45  55
ATOM     55  O4  SGN d   4      23.938 -46.076  35.175  0.00  0.00    -0.348 OA
BRANCH  55  56
ATOM     56  C4  SGN d   4      22.648 -46.440  35.677  0.00  0.00     0.186 C 
ATOM     57  C3  SGN d   4      21.753 -46.905  34.527  0.00  0.00     0.173 C 
ATOM     58  C2  SGN d   4      20.424 -47.390  35.110  0.00  0.00     0.160 C 
ATOM     59  C1  SGN d   4      20.644 -48.456  36.185  0.00  0.00     0.278 C 
ATOM     60  O5  SGN d   4      21.480 -47.908  37.217  0.00  0.00    -0.350 OA
ATOM     61  C5  SGN d   4      22.782 -47.549  36.723  0.00  0.00     0.181 C 
ATOM     62  O3  SGN d   4      21.509 -45.806  33.644  0.00  0.00    -0.391 OA
ATOM     63  H   SGN d   4      21.078 -45.088  34.133  0.00  0.00     0.210 HD
ATOM     64  N   SGN d   4      19.565 -47.915  34.039  0.00  0.00    -0.189 NA
ATOM     65  H   SGN d   4      19.718 -48.919  33.944  0.00  0.00     0.143 HD
ATOM     70  O1  SGN d   4      21.259 -49.618  35.622  0.00  0.00    -0.369 OA
ATOM     71  H   SGN d   4      22.119 -49.377  35.243  0.00  0.00     0.212 HD
BRANCH  61  72
ATOM     72  C6  SGN d   4      23.621 -47.025  37.888  0.00  0.00     0.227 C 
BRANCH  72  73
ATOM     73  O6  SGN d   4      23.746 -48.032  38.893  0.00  0.00    -0.254 OA
ATOM     74  S2  SGN d   4      24.325 -47.697  40.156  0.00  0.00     0.251 S 
ATOM     75  O4S SGN d   4      25.174 -46.469  40.006  0.00  0.00    -0.572 OA
ATOM     76  O6S SGN d   4      25.172 -48.843  40.626  0.00  0.00    -0.572 OA
ATOM     77  O5S SGN d   4      23.241 -47.424  41.157  0.00  0.00    -0.572 OA
ENDBRANCH  72  73
ENDBRANCH  61  72
BRANCH  64  66
ATOM     66  S1  SGN d   4      18.000 -47.638  34.401  0.00  0.00     0.183 S 
ATOM     67  O3S SGN d   4      17.634 -48.379  35.653  0.00  0.00    -0.582 OA
ATOM     68  O1S SGN d   4      17.793 -46.166  34.609  0.00  0.00    -0.582 OA
ATOM     69  O2S SGN d   4      17.141 -48.106  33.263  0.00  0.00    -0.582 OA
ENDBRANCH  64  66
ENDBRANCH  55  56
ENDBRANCH  45  55
BRANCH  78  80
ATOM     80  O62 IDS d   3      23.100 -42.613  31.731  0.00  0.00    -0.774 OA
ENDBRANCH  78  80
ENDBRANCH   1  42
TORSDOF 16
