REMARK  0 active torsions:
REMARK  status: ('A' for Active; 'I' for Inactive)
REMARK       I    between atoms: N2_1  and  C2_7 
REMARK       I    between atoms: N2_1  and  C7_2 
REMARK       I    between atoms: C6_3  and  C5_21 
REMARK       I    between atoms: C6_3  and  O6B_26 
REMARK       I    between atoms: C3_5  and  O3_22 
REMARK       I    between atoms: C2_6  and  O2_19 
REMARK       I    between atoms: O6_8  and  C6_13 
REMARK       I    between atoms: C1_11  and  O3_22 
REMARK       I    between atoms: O4_12  and  C4_25 
REMARK       I    between atoms: C6_13  and  C5_18 
REMARK       I    between atoms: C1_14  and  O1_16 
REMARK       I    between atoms: C3_20  and  O3_24 
ROOT
ATOM      1  N2  NAG d 810      -1.919  40.128  75.518  0.00  0.00    -0.349 N 
ATOM      2  C7  NAG d 810      -1.822  39.844  74.227  0.00  0.00     0.214 C 
ATOM      3  O5  NAG d 810       0.414  40.061  78.391  0.00  0.00    -0.349 OA
ATOM      4  C3  NAG d 810      -1.809  38.560  77.308  0.00  0.00     0.183 C 
ATOM      5  C2  NAG d 810      -1.038  39.585  76.514  0.00  0.00     0.171 C 
ATOM      6  O6  NAG d 810       1.476  39.369  80.756  0.00  0.00    -0.398 OA
ATOM      7  C8  NAG d 810      -3.013  40.247  73.372  0.00  0.00     0.117 C 
ATOM      8  O4  NAG d 810      -1.442  36.909  79.050  0.00  0.00    -0.390 OA
ATOM      9  C6  NAG d 810       0.843  38.351  80.057  0.00  0.00     0.198 C 
ATOM     10  C1  NAG d 810      -0.501  40.676  77.472  0.00  0.00     0.282 C 
ATOM     11  O1  NAG d 810       0.139  41.727  76.743  0.00  0.00    -0.369 OA
ATOM     12  C5  NAG d 810      -0.205  39.050  79.188  0.00  0.00     0.179 C 
ATOM     13  O3  NAG d 810      -2.421  37.590  76.438  0.00  0.00    -0.348 OA
ATOM     14  O7  NAG d 810      -0.824  39.309  73.772  0.00  0.00    -0.274 OA
ATOM     15  C4  NAG d 810      -0.822  37.949  78.296  0.00  0.00     0.180 C 
ATOM     16  H   NAG d 810      -2.631  40.742  75.809  0.00  0.00     0.163 HD
ATOM     17  H   NAG d 810       2.159  38.990  81.331  0.00  0.00     0.209 HD
ATOM     18  H   NAG d 810      -1.811  36.247  78.445  0.00  0.00     0.210 HD
ATOM     19  H   NAG d 810       0.885  41.364  76.241  0.00  0.00     0.212 HD
ATOM     20  C6  GAD d 809      -6.580  37.539  78.633  0.00  0.00     0.200 C 
ATOM     21  C2  GAD d 809      -4.104  36.394  75.164  0.00  0.00     0.206 C 
ATOM     22  C4  GAD d 809      -6.392  37.137  76.078  0.00  0.00     0.051 C 
ATOM     23  C1  GAD d 809      -3.723  37.246  76.385  0.00  0.00     0.298 C 
ATOM     24  O5  GAD d 809      -4.543  36.637  77.411  0.00  0.00    -0.311 OA
ATOM     25  O6A GAD d 809      -7.734  38.089  78.693  0.00  0.00    -0.645 OA
ATOM     26  O2  GAD d 809      -3.521  36.881  73.980  0.00  0.00    -0.388 OA
ATOM     27  C3  GAD d 809      -5.614  36.427  74.926  0.00  0.00     0.177 C 
ATOM     28  C5  GAD d 809      -5.905  37.095  77.324  0.00  0.00     0.144 C 
ATOM     29  O3  GAD d 809      -6.085  35.126  74.525  0.00  0.00    -0.389 OA
ATOM     30  O6B GAD d 809      -5.850  37.256  79.622  0.00  0.00    -0.771 OA
ATOM     31  H   GAD d 809      -3.850  37.776  73.802  0.00  0.00     0.210 HD
ATOM     32  H   GAD d 809      -5.919  34.488  75.237  0.00  0.00     0.210 HD
ATOM     33  H   GAD d 809      -5.015  36.852  79.488  0.00  0.00     0.167 HD
ENDROOT
TORSDOF 11
