REMARK  0 active torsions:
REMARK  status: ('A' for Active; 'I' for Inactive)
REMARK       I    between atoms: C6_1  and  C5_67 
REMARK       I    between atoms: C6_1  and  O6_83 
REMARK       I    between atoms: O3_2  and  C3_82 
REMARK       I    between atoms: N_3  and  C2_54 
REMARK       I    between atoms: N_3  and  S1_84 
REMARK       I    between atoms: C5_4  and  C6_74 
REMARK       I    between atoms: C2_6  and  O2_14 
REMARK       I    between atoms: C1_7  and  O4_69 
REMARK       I    between atoms: C1_8  and  O4_17 
REMARK       I    between atoms: S_9  and  O2_14 
REMARK       I    between atoms: C5_10  and  C6_46 
REMARK       I    between atoms: O2_13  and  C2_85 
REMARK       I    between atoms: O2_13  and  S_43 
REMARK       I    between atoms: O4_17  and  C4_23 
REMARK       I    between atoms: O3_22  and  C3_56 
REMARK       I    between atoms: O4_24  and  C4_41 
REMARK       I    between atoms: C4_26  and  O4_53 
REMARK       I    between atoms: O4_28  and  C4_78 
REMARK       I    between atoms: O4_28  and  C1_76 
REMARK       I    between atoms: C3_31  and  O3_39 
REMARK       I    between atoms: C1_32  and  O1_86 
REMARK       I    between atoms: C3_33  and  O3_34 
REMARK       I    between atoms: O3_36  and  C3_70 
REMARK       I    between atoms: C6_42  and  C5_44 
REMARK       I    between atoms: C6_42  and  O6_50 
REMARK       I    between atoms: S2_45  and  O6_83 
REMARK       I    between atoms: C6_46  and  O62_52 
REMARK       I    between atoms: N_47  and  C2_88 
REMARK       I    between atoms: N_47  and  S1_62 
REMARK       I    between atoms: C1_49  and  O4_53 
REMARK       I    between atoms: O6_50  and  S2_58 
REMARK       I    between atoms: O61_51  and  C6_74 
REMARK       I    between atoms: C5_57  and  C6_89 
REMARK       I    between atoms: S2_60  and  O6_75 
REMARK       I    between atoms: S1_61  and  N_73 
REMARK       I    between atoms: O4_69  and  C4_71 
REMARK       I    between atoms: N_73  and  C2_79 
REMARK       I    between atoms: O6_75  and  C6_89 
ROOT
ATOM      1  C6  SGN d 303     -17.177   6.153  47.219  0.00  0.00     0.227 C 
ATOM      2  O4S SGN d 303     -18.948   7.670  49.123  0.00  0.00    -0.572 OA
ATOM      3  O4  SGN d 303     -14.625   7.300  46.221  0.00  0.00    -0.348 OA
ATOM      4  O2S SGN d 303     -16.465   6.864  40.283  0.00  0.00    -0.582 OA
ATOM      5  O3  SGN d 303     -14.382   7.491  43.315  0.00  0.00    -0.391 OA
ATOM      6  O1S SGN d 303     -17.783   4.970  40.827  0.00  0.00    -0.582 OA
ATOM      7  O5S SGN d 303     -19.912   8.649  47.162  0.00  0.00    -0.572 OA
ATOM      8  S2  SGN d 303     -19.352   7.460  47.760  0.00  0.00     0.251 S 
ATOM      9  O6S SGN d 303     -20.191   6.283  47.592  0.00  0.00    -0.572 OA
ATOM     10  C1  SGN d 303     -16.950   4.833  43.834  0.00  0.00     0.282 C 
ATOM     11  O3S SGN d 303     -15.792   4.705  39.548  0.00  0.00    -0.582 OA
ATOM     12  S1  SGN d 303     -16.456   5.457  40.536  0.00  0.00     0.183 S 
ATOM     13  O5  SGN d 303     -17.475   5.400  45.023  0.00  0.00    -0.349 OA
ATOM     14  C5  SGN d 303     -16.475   5.831  45.936  0.00  0.00     0.181 C 
ATOM     15  C3  SGN d 303     -15.016   6.438  43.995  0.00  0.00     0.173 C 
ATOM     16  N   SGN d 303     -15.577   5.284  41.872  0.00  0.00    -0.189 NA
ATOM     17  C4  SGN d 303     -15.652   6.975  45.331  0.00  0.00     0.186 C 
ATOM     18  C2  SGN d 303     -16.124   5.878  43.090  0.00  0.00     0.160 C 
ATOM     19  O6  SGN d 303     -18.050   7.189  46.959  0.00  0.00    -0.254 OA
ATOM     20  H   SGN d 303     -13.992   7.156  42.493  0.00  0.00     0.210 HD
ATOM     21  H   SGN d 303     -14.666   5.709  41.701  0.00  0.00     0.143 HD
ATOM     22  O3  IDS d 304     -11.816   7.630  47.057  0.00  0.00    -0.390 OA
ATOM     23  C2  IDS d 304     -13.817   8.212  48.276  0.00  0.00     0.231 C 
ATOM     24  S   IDS d 304     -15.118   8.644  50.542  0.00  0.00     0.252 S 
ATOM     25  C5  IDS d 304     -13.527   9.868  45.981  0.00  0.00     0.253 C 
ATOM     26  O3S IDS d 304     -16.252   7.901  50.117  0.00  0.00    -0.572 OA
ATOM     27  O2  IDS d 304     -14.215   9.037  49.339  0.00  0.00    -0.244 OA
ATOM     28  O1S IDS d 304     -14.283   7.892  51.433  0.00  0.00    -0.572 OA
ATOM     29  O4  IDS d 304     -12.601  11.003  47.819  0.00  0.00    -0.348 OA
ATOM     30  O2S IDS d 304     -15.499   9.899  51.063  0.00  0.00    -0.572 OA
ATOM     31  C4  IDS d 304     -12.408   9.909  46.987  0.00  0.00     0.195 C 
ATOM     32  O5  IDS d 304     -14.764   9.616  46.566  0.00  0.00    -0.340 OA
ATOM     33  C6  IDS d 304     -13.625  11.088  45.185  0.00  0.00     0.172 C 
ATOM     34  O62 IDS d 304     -12.678  11.482  44.575  0.00  0.00    -0.774 OA
ATOM     35  O61 IDS d 304     -14.665  11.713  45.134  0.00  0.00    -0.648 OA
ATOM     36  C1  IDS d 304     -14.852   8.329  47.151  0.00  0.00     0.294 C 
ATOM     37  C3  IDS d 304     -12.392   8.645  47.834  0.00  0.00     0.185 C 
ATOM     38  H   IDS d 304     -11.790   6.806  47.569  0.00  0.00     0.210 HD
ATOM     39  H   IDS d 304     -11.870  11.008  44.607  0.00  0.00     0.167 HD
ATOM     40  N   SGN d 301     -15.256  -3.692  48.452  0.00  0.00    -0.189 NA
ATOM     41  O5  SGN d 301     -12.923  -3.226  45.635  0.00  0.00    -0.350 OA
ATOM     42  O2S SGN d 301     -15.530  -1.929  50.140  0.00  0.00    -0.582 OA
ATOM     43  O1S SGN d 301     -13.589  -3.419  50.293  0.00  0.00    -0.582 OA
ATOM     44  O4S SGN d 301      -9.647  -0.819  43.469  0.00  0.00    -0.572 OA
ATOM     45  O5S SGN d 301     -10.092  -1.988  45.523  0.00  0.00    -0.572 OA
ATOM     46  C3  SGN d 301     -15.385  -2.172  46.517  0.00  0.00     0.173 C 
ATOM     47  C1  SGN d 301     -13.632  -3.922  46.628  0.00  0.00     0.278 C 
ATOM     48  O3  SGN d 301     -16.199  -1.270  47.232  0.00  0.00    -0.391 OA
ATOM     49  C6  SGN d 301     -12.955  -1.929  43.649  0.00  0.00     0.227 C 
ATOM     50  C5  SGN d 301     -13.762  -2.464  44.800  0.00  0.00     0.181 C 
ATOM     51  O6  SGN d 301     -11.881  -1.252  44.159  0.00  0.00    -0.254 OA
ATOM     52  C2  SGN d 301     -14.489  -2.964  47.460  0.00  0.00     0.160 C 
ATOM     53  S2  SGN d 301     -10.462  -1.820  44.132  0.00  0.00     0.251 S 
ATOM     54  O4  SGN d 301     -15.088  -0.547  44.792  0.00  0.00    -0.348 OA
ATOM     55  C4  SGN d 301     -14.418  -1.414  45.629  0.00  0.00     0.186 C 
ATOM     56  O3S SGN d 301     -15.858  -4.209  50.755  0.00  0.00    -0.582 OA
ATOM     57  S1  SGN d 301     -15.029  -3.286  50.019  0.00  0.00     0.183 S 
ATOM     58  O1  SGN d 301     -14.469  -4.908  46.017  0.00  0.00    -0.369 OA
ATOM     59  O6S SGN d 301     -10.557  -3.065  43.376  0.00  0.00    -0.572 OA
ATOM     60  H   SGN d 301     -15.024  -4.680  48.355  0.00  0.00     0.143 HD
ATOM     61  H   SGN d 301     -15.640  -0.671  47.751  0.00  0.00     0.210 HD
ATOM     62  H   SGN d 301     -15.106  -4.472  45.429  0.00  0.00     0.212 HD
ATOM     63  C5  IDS d 302     -16.553   1.691  45.130  0.00  0.00     0.253 C 
ATOM     64  C1  IDS d 302     -14.492   0.720  44.742  0.00  0.00     0.294 C 
ATOM     65  O2  IDS d 302     -13.435   2.139  43.086  0.00  0.00    -0.244 OA
ATOM     66  O5  IDS d 302     -15.223   1.623  45.538  0.00  0.00    -0.340 OA
ATOM     67  C4  IDS d 302     -16.627   2.457  43.850  0.00  0.00     0.195 C 
ATOM     68  C3  IDS d 302     -15.780   1.757  42.756  0.00  0.00     0.185 C 
ATOM     69  O3  IDS d 302     -16.546   0.702  42.221  0.00  0.00    -0.390 OA
ATOM     70  O62 IDS d 302     -18.613   2.424  45.985  0.00  0.00    -0.648 OA
ATOM     71  S   IDS d 302     -12.792   2.548  41.723  0.00  0.00     0.252 S 
ATOM     72  O61 IDS d 302     -16.972   2.477  47.304  0.00  0.00    -0.774 OA
ATOM     73  O4  IDS d 302     -16.111   3.733  44.096  0.00  0.00    -0.348 OA
ATOM     74  O3S IDS d 302     -13.181   1.545  40.808  0.00  0.00    -0.572 OA
ATOM     75  C6  IDS d 302     -17.428   2.229  46.200  0.00  0.00     0.172 C 
ATOM     76  O2S IDS d 302     -11.385   2.616  41.912  0.00  0.00    -0.572 OA
ATOM     77  C2  IDS d 302     -14.453   1.174  43.275  0.00  0.00     0.231 C 
ATOM     78  O1S IDS d 302     -13.367   3.803  41.386  0.00  0.00    -0.572 OA
ATOM     79  H   IDS d 302     -16.744   0.060  42.920  0.00  0.00     0.210 HD
ATOM     80  H   IDS d 302     -16.063   2.331  47.479  0.00  0.00     0.167 HD
ATOM     81  C1  SGN d 305     -11.443  11.722  48.188  0.00  0.00     0.282 C 
ATOM     82  O5  SGN d 305     -10.862  12.423  47.085  0.00  0.00    -0.349 OA
ATOM     83  O5S SGN d 305      -7.315  14.850  45.476  0.00  0.00    -0.572 OA
ATOM     84  O3  SGN d 305     -13.265  14.645  49.666  0.00  0.00    -0.391 OA
ATOM     85  O4  SGN d 305     -13.167  15.315  46.976  0.00  0.00    -0.390 OA
ATOM     86  C4  SGN d 305     -12.188  14.449  47.529  0.00  0.00     0.179 C 
ATOM     87  N   SGN d 305     -12.328  12.003  50.472  0.00  0.00    -0.189 NA
ATOM     88  C3  SGN d 305     -12.865  13.694  48.692  0.00  0.00     0.172 C 
ATOM     89  C5  SGN d 305     -11.729  13.419  46.485  0.00  0.00     0.181 C 
ATOM     90  S2  SGN d 305      -8.581  15.029  44.772  0.00  0.00     0.251 S 
ATOM     91  S1  SGN d 305     -11.221  11.406  51.507  0.00  0.00     0.183 S 
ATOM     92  O6S SGN d 305      -8.622  14.221  43.565  0.00  0.00    -0.572 OA
ATOM     93  O4S SGN d 305      -8.918  16.419  44.553  0.00  0.00    -0.572 OA
ATOM     94  O2S SGN d 305     -10.448  12.503  52.015  0.00  0.00    -0.582 OA
ATOM     95  O6  SGN d 305      -9.737  14.512  45.714  0.00  0.00    -0.254 OA
ATOM     96  O3S SGN d 305     -11.994  10.746  52.506  0.00  0.00    -0.582 OA
ATOM     97  O1S SGN d 305     -10.379  10.524  50.757  0.00  0.00    -0.582 OA
ATOM     98  C2  SGN d 305     -11.824  12.717  49.282  0.00  0.00     0.160 C 
ATOM     99  C6  SGN d 305     -10.976  14.022  45.296  0.00  0.00     0.227 C 
ATOM    100  H   SGN d 305     -13.918  15.249  49.279  0.00  0.00     0.210 HD
ATOM    101  H   SGN d 305     -13.446  15.958  47.647  0.00  0.00     0.210 HD
ATOM    102  H   SGN d 305     -12.894  11.221  50.143  0.00  0.00     0.143 HD
ENDROOT
TORSDOF 38
