REMARK 10 active torsions
REMARK    1  A    between atoms: atom4  and  atom_
REMARK    2  A    between atoms: atom7  and  atom_
REMARK    3  A    between atoms: atom1  and  atom0
REMARK    4  A    between atoms: atom3  and  atom_
REMARK    5  A    between atoms: atom5  and  atom_
REMARK    6  A    between atoms: atom2  and  atom3
REMARK    7  A    between atoms: atom2  and  atom_
REMARK    8  A    between atoms: atom2  and  atom7
REMARK    9  A    between atoms: atom3  and  atom4
REMARK    10  A    between atoms: atom1  and  atom_
ROOT
ATOM      1  C4  GNX d 141      28.300  -5.845 -23.834  0.00  0.00     0.181 C 
ATOM      2  C2  GNX d 141      26.591  -7.265 -22.661  0.00  0.00     0.162 C 
ATOM      3  C3  GNX d 141      27.922  -7.258 -23.404  0.00  0.00     0.199 C 
ATOM      4  C1  GNX d 141      26.561  -6.184 -21.587  0.00  0.00     0.282 C 
ATOM      5  C5  GNX d 141      28.148  -4.864 -22.678  0.00  0.00     0.179 C 
ATOM      6  O5  GNX d 141      26.833  -4.931 -22.173  0.00  0.00    -0.349 OA
ENDROOT
BRANCH   1  42
ATOM     42  O4  GNX d 141      29.635  -5.833 -24.288  0.00  0.00    -0.390 OA
ATOM     43  H   GNX d 141      30.224  -6.107 -23.568  0.00  0.00     0.210 HD
ENDBRANCH   1  42
BRANCH   2  27
ATOM     27  N   GNX d 141      26.364  -8.566 -22.063  0.00  0.00    -0.189 NA
ATOM     28  H   GNX d 141      27.096  -9.184 -22.415  0.00  0.00     0.143 HD
BRANCH  27  29
ATOM     29  S1  GNX d 141      24.972  -9.320 -22.295  0.00  0.00     0.183 S 
ATOM     30  O3S GNX d 141      23.962  -8.582 -21.541  0.00  0.00    -0.582 OA
ATOM     31  O1S GNX d 141      24.709  -9.288 -23.731  0.00  0.00    -0.582 OA
ATOM     32  O2S GNX d 141      25.140 -10.680 -21.792  0.00  0.00    -0.582 OA
ENDBRANCH  27  29
ENDBRANCH   2  27
BRANCH   3  33
ATOM     33  O3  GNX d 141      27.830  -8.086 -24.542  0.00  0.00    -0.254 OA
ATOM     34  S12 GNX d 141      28.659  -8.947 -25.245  0.00  0.00     0.240 S 
ATOM     35  O32 GNX d 141      28.556 -10.055 -24.290  0.00  0.00    -0.579 OA
ATOM     36  O12 GNX d 141      28.025  -9.391 -26.532  0.00  0.00    -0.579 OA
BRANCH  34  37
ATOM     37  O22 GNX d 141      30.087  -8.756 -25.502  0.00  0.00    -0.274 OA
ATOM     38  H   GNX d 141      30.527  -8.468 -24.687  0.00  0.00     0.234 HD
ENDBRANCH  34  37
ENDBRANCH   3  33
BRANCH   4   7
ATOM      7  O4  IDY d 142      27.535  -6.467 -20.608  0.00  0.00    -0.348 OA
BRANCH   7   8
ATOM      8  C4  IDY d 142      26.917  -6.341 -19.133  0.00  0.00     0.195 C 
ATOM      9  C3  IDY d 142      26.347  -7.711 -18.731  0.00  0.00     0.185 C 
ATOM     10  C2  IDY d 142      27.391  -8.784 -18.395  0.00  0.00     0.231 C 
ATOM     11  C1  IDY d 142      28.539  -8.163 -17.596  0.00  0.00     0.293 C 
ATOM     12  O5  IDY d 142      29.060  -6.928 -18.095  0.00  0.00    -0.340 OA
ATOM     13  C5  IDY d 142      28.135  -5.867 -18.331  0.00  0.00     0.253 C 
ATOM     14  O3  IDY d 142      25.485  -7.556 -17.585  0.00  0.00    -0.390 OA
ATOM     15  H   IDY d 142      24.815  -6.881 -17.774  0.00  0.00     0.210 HD
ATOM     21  O1  IDY d 142      28.813  -8.719 -16.131  0.00  0.00    -0.363 OA
ATOM     22  C7  IDY d 142      28.860  -8.523 -15.176  0.00  0.00     0.204 C 
ATOM     23  C6  IDY d 142      28.910  -4.865 -19.145  0.00  0.00     0.172 C 
ATOM     24  O61 IDY d 142      28.772  -3.592 -18.893  0.00  0.00    -0.648 OA
BRANCH  10  16
ATOM     16  O2  IDY d 142      27.837  -9.541 -19.544  0.00  0.00    -0.244 OA
ATOM     17  S   IDY d 142      28.425 -10.982 -19.438  0.00  0.00     0.252 S 
ATOM     18  OS3 IDY d 142      29.354 -11.127 -18.258  0.00  0.00    -0.572 OA
ATOM     19  OS2 IDY d 142      27.349 -11.995 -19.341  0.00  0.00    -0.572 OA
ATOM     20  OS1 IDY d 142      29.189 -11.279 -20.668  0.00  0.00    -0.572 OA
ENDBRANCH  10  16
BRANCH  23  25
ATOM     25  O62 IDY d 142      29.719  -5.266 -20.031  0.00  0.00    -0.774 OA
ENDBRANCH  23  25
ENDBRANCH   7   8
ENDBRANCH   4   7
BRANCH   5  39
ATOM     39  C6  GNX d 141      28.447  -3.439 -23.128  0.00  0.00     0.198 C 
ATOM     40  O6  GNX d 141      27.507  -2.558 -22.554  0.00  0.00    -0.398 OA
ATOM     41  H   GNX d 141      27.697  -1.651 -22.840  0.00  0.00     0.209 HD
ENDBRANCH   5  39
TORSDOF 10
