REMARK  16 active torsions:
REMARK  status: ('A' for Active; 'I' for Inactive)
REMARK    1 I    between atoms: C2_1  and  N_18 
REMARK    2 I    between atoms: O4_5  and  C1_17 
REMARK    3 I    between atoms: O4_5  and  C4_30 
REMARK    4 I    between atoms: O6_6  and  C6_7 
REMARK    5 I    between atoms: O6_6  and  S2_22 
REMARK    6 I    between atoms: C6_7  and  C5_28 
REMARK    7 I    between atoms: C3_8  and  O3_10 
REMARK    8 I    between atoms: C1_9  and  O1_16 
REMARK    9 I    between atoms: S1_12  and  N_18 
REMARK   10 I    between atoms: S1_12  and  O1S_13 
REMARK   11 I    between atoms: S1_12  and  O2S_15 
REMARK   12 I    between atoms: S1_12  and  O3S_26 
REMARK   13 I    between atoms: O2_24  and  C2_31 
REMARK   14 I    between atoms: O2_24  and  S_34 
REMARK   15 I    between atoms: C6_25  and  C5_27 
REMARK   16 I    between atoms: C3_32  and  O3_33 
ROOT
ATOM      1  C2  SGN d1219      25.221 -10.621  -5.199  0.00  0.00     0.157 C 
ATOM      2  C3  SGN d1219      24.156 -11.678  -4.878  0.00  0.00     0.173 C 
ATOM      3  C1  SGN d1219      24.755  -9.614  -6.260  0.00  0.00     0.278 C 
ATOM      4  O5  SGN d1219      23.485  -9.089  -5.909  0.00  0.00    -0.350 OA
ATOM      5  C5  SGN d1219      22.437 -10.044  -5.823  0.00  0.00     0.181 C 
ATOM      6  C4  SGN d1219      22.738 -11.104  -4.759  0.00  0.00     0.186 C 
ENDROOT
BRANCH   6   7
ATOM      7  O4  SGN d1219      21.797 -12.155  -4.872  0.00  0.00    -0.348 OA
BRANCH   7   8
ATOM      8  C1  IDU d1218      21.404 -12.569  -3.548  0.00  0.00     0.294 C 
ATOM      9  O5  IDU d1218      22.206 -13.627  -2.997  0.00  0.00    -0.343 OA
ATOM     10  C5  IDU d1218      21.933 -14.929  -3.518  0.00  0.00     0.228 C 
ATOM     11  C4  IDU d1218      20.495 -15.319  -3.178  0.00  0.00     0.077 C 
ATOM     12  C3  IDU d1218      19.485 -14.304  -3.720  0.00  0.00     0.156 C 
ATOM     13  C2  IDU d1218      19.893 -12.839  -3.503  0.00  0.00     0.228 C 
BRANCH  10  14
ATOM     14  C6  IDU d1218      22.888 -15.915  -2.910  0.00  0.00     0.203 C 
ATOM     15  O61 IDU d1218      23.396 -16.788  -3.663  0.00  0.00    -0.646 OA
ATOM     16  O62 IDU d1218      23.144 -15.828  -1.674  0.00  0.00    -0.646 OA
ENDBRANCH  10  14
BRANCH  12  17
ATOM     17  O3  IDU d1218      19.268 -14.543  -5.116  0.00  0.00    -0.393 OA
ATOM     18  H   IDU d1218      20.097 -14.406  -5.600  0.00  0.00     0.210 HD
ENDBRANCH  12  17
BRANCH  13  19
ATOM     19  O2  IDU d1218      19.391 -12.388  -2.247  0.00  0.00    -0.244 OA
BRANCH  19  20
ATOM     20  S   IDU d1218      18.399 -11.090  -2.171  0.00  0.00     0.252 S 
ATOM     21  O1S IDU d1218      18.617 -10.368  -0.896  0.00  0.00    -0.572 OA
ATOM     22  O3S IDU d1218      18.677 -10.170  -3.295  0.00  0.00    -0.572 OA
ATOM     23  O2S IDU d1218      16.998 -11.559  -2.253  0.00  0.00    -0.572 OA
ENDBRANCH  19  20
ENDBRANCH  13  19
ENDBRANCH   7   8
ENDBRANCH   6   7
BRANCH   2  24
ATOM     24  O3  SGN d1219      24.494 -12.341  -3.677  0.00  0.00    -0.391 OA
ATOM     25  H   SGN d1219      24.497 -11.704  -2.946  0.00  0.00     0.210 HD
ENDBRANCH   2  24
BRANCH   5  26
ATOM     26  C6  SGN d1219      21.125  -9.340  -5.495  0.00  0.00     0.227 C 
BRANCH  26  27
ATOM     27  O6  SGN d1219      21.374  -8.004  -5.109  0.00  0.00    -0.254 OA
BRANCH  27  28
ATOM     28  S2  SGN d1219      20.353  -7.249  -4.202  0.00  0.00     0.251 S 
ATOM     29  O4S SGN d1219      20.348  -7.886  -2.888  0.00  0.00    -0.572 OA
ATOM     30  O5S SGN d1219      19.050  -7.377  -4.844  0.00  0.00    -0.572 OA
ATOM     31  O6S SGN d1219      20.811  -5.867  -4.127  0.00  0.00    -0.572 OA
ENDBRANCH  27  28
ENDBRANCH  26  27
ENDBRANCH   5  26
BRANCH   1  32
ATOM     32  N   SGN d1219      26.455 -11.263  -5.621  0.00  0.00    -0.210 NA
ATOM     33  H   SGN d1219      26.537 -11.102  -6.625  0.00  0.00     0.140 HD
BRANCH  32  34
ATOM     34  S1  SGN d1219      27.865 -10.851  -4.978  0.00  0.00     0.156 S 
BRANCH  34  35
ATOM     35  O1S SGN d1219      28.898 -11.433  -5.831  0.00  0.00    -0.296 OA
ATOM     36  H   SGN d1219      28.821 -12.400  -5.818  0.00  0.00     0.231 HD
ENDBRANCH  34  35
BRANCH  34  37
ATOM     37  O2S SGN d1219      27.890 -11.409  -3.626  0.00  0.00    -0.296 OA
ATOM     38  H   SGN d1219      27.840 -12.377  -3.675  0.00  0.00     0.231 HD
ENDBRANCH  34  37
BRANCH  34  39
ATOM     39  O3S SGN d1219      27.938  -9.389  -4.964  0.00  0.00    -0.296 OA
ATOM     40  H   SGN d1219      27.919  -9.056  -5.875  0.00  0.00     0.231 HD
ENDBRANCH  34  39
ENDBRANCH  32  34
ENDBRANCH   1  32
BRANCH   3  41
ATOM     41  O1  SGN d1219      24.702 -10.205  -7.544  0.00  0.00    -0.369 OA
ATOM     42  H   SGN d1219      24.061 -10.933  -7.539  0.00  0.00     0.212 HD
ENDBRANCH   3  41
TORSDOF 16
