REMARK  0 active torsions:
REMARK  status: ('A' for Active; 'I' for Inactive)
REMARK       I    between atoms: C6_2  and  C5_34 
REMARK       I    between atoms: C6_2  and  O6_33 
REMARK       I    between atoms: S_3  and  O4_44 
REMARK       I    between atoms: O6_5  and  C6_51 
REMARK       I    between atoms: C4_6  and  O4_15 
REMARK       I    between atoms: O3_7  and  C3_11 
REMARK       I    between atoms: C3_10  and  O3_32 
REMARK       I    between atoms: C2_12  and  N_23 
REMARK       I    between atoms: C5_14  and  C6_51 
REMARK       I    between atoms: O4_15  and  S_54 
REMARK       I    between atoms: O1_16  and  C1_21 
REMARK       I    between atoms: O6B_18  and  C6_25 
REMARK       I    between atoms: C7_19  and  N_45 
REMARK       I    between atoms: O6A_20  and  C6_57 
REMARK       I    between atoms: N_23  and  C7_40 
REMARK       I    between atoms: C3_24  and  O3_53 
REMARK       I    between atoms: C6_25  and  C5_37 
REMARK       I    between atoms: O2_26  and  C2_28 
REMARK       I    between atoms: C1_30  and  O1_42 
REMARK       I    between atoms: C4_31  and  O1_42 
REMARK       I    between atoms: C1_39  and  O3_53 
REMARK       I    between atoms: C3_43  and  O3_59 
REMARK       I    between atoms: O4_44  and  C4_52 
REMARK       I    between atoms: N_45  and  C2_49 
REMARK       I    between atoms: C1_46  and  O3_59 
REMARK       I    between atoms: C5_48  and  C6_57 
REMARK       I    between atoms: O2_50  and  C2_60 
ROOT
ATOM      1  O5  GAD d 809      -4.078  37.329  76.265  0.00  0.00    -0.311 OA
ATOM      2  O6A GAD d 809      -7.422  38.023  77.466  0.00  0.00    -0.645 OA
ATOM      3  O3  GAD d 809      -5.831  35.401  73.374  0.00  0.00    -0.389 OA
ATOM      4  C3  GAD d 809      -5.376  36.728  73.749  0.00  0.00     0.177 C 
ATOM      5  O6B GAD d 809      -5.499  37.886  78.598  0.00  0.00    -0.771 OA
ATOM      6  C6  GAD d 809      -6.207  37.800  77.535  0.00  0.00     0.200 C 
ATOM      7  O2  GAD d 809      -3.245  37.071  72.571  0.00  0.00    -0.388 OA
ATOM      8  C2  GAD d 809      -3.852  36.768  73.866  0.00  0.00     0.206 C 
ATOM      9  C5  GAD d 809      -5.506  37.433  76.218  0.00  0.00     0.144 C 
ATOM     10  C1  GAD d 809      -3.456  37.714  75.026  0.00  0.00     0.298 C 
ATOM     11  C4  GAD d 809      -6.094  37.262  75.019  0.00  0.00     0.051 C 
ATOM     12  H   GAD d 809      -5.357  35.109  72.579  0.00  0.00     0.210 HD
ATOM     13  H   GAD d 809      -4.581  37.700  78.566  0.00  0.00     0.167 HD
ATOM     14  H   GAD d 809      -3.551  36.428  71.912  0.00  0.00     0.210 HD
ATOM     15  C6  ASG d 812       4.438  49.227  73.604  0.00  0.00     0.199 C 
ATOM     16  S   ASG d 812       1.901  49.452  75.900  0.00  0.00     0.252 S 
ATOM     17  C2  ASG d 812       5.545  47.234  77.220  0.00  0.00     0.171 C 
ATOM     18  OSA ASG d 812       1.195  48.962  74.753  0.00  0.00    -0.572 OA
ATOM     19  O1  ASG d 812       7.462  48.708  77.207  0.00  0.00    -0.369 OA
ATOM     20  OSC ASG d 812       2.520  50.875  75.541  0.00  0.00    -0.572 OA
ATOM     21  C1  ASG d 812       6.524  48.045  76.371  0.00  0.00     0.282 C 
ATOM     22  N   ASG d 812       6.193  46.193  77.971  0.00  0.00    -0.349 N 
ATOM     23  O6  ASG d 812       5.494  49.808  72.842  0.00  0.00    -0.398 OA
ATOM     24  C5  ASG d 812       4.940  48.335  74.722  0.00  0.00     0.181 C 
ATOM     25  O5  ASG d 812       5.758  49.022  75.696  0.00  0.00    -0.349 OA
ATOM     26  OSB ASG d 812       0.976  49.611  76.977  0.00  0.00    -0.572 OA
ATOM     27  C7  ASG d 812       6.545  46.353  79.252  0.00  0.00     0.214 C 
ATOM     28  O7  ASG d 812       6.581  47.474  79.773  0.00  0.00    -0.274 OA
ATOM     29  C3  ASG d 812       4.486  46.580  76.359  0.00  0.00     0.185 C 
ATOM     30  O4  ASG d 812       3.078  48.435  76.366  0.00  0.00    -0.246 OA
ATOM     31  C4  ASG d 812       3.818  47.600  75.472  0.00  0.00     0.207 C 
ATOM     32  C8  ASG d 812       6.913  45.061  79.947  0.00  0.00     0.117 C 
ATOM     33  O3  ASG d 812       3.587  46.030  77.311  0.00  0.00    -0.348 OA
ATOM     34  H   ASG d 812       7.997  48.050  77.678  0.00  0.00     0.212 HD
ATOM     35  H   ASG d 812       6.384  45.335  77.528  0.00  0.00     0.163 HD
ATOM     36  H   ASG d 812       6.037  50.369  73.418  0.00  0.00     0.209 HD
ATOM     37  O6  ASG d 810       1.500  39.423  79.875  0.00  0.00    -0.398 OA
ATOM     38  C4  ASG d 810      -0.810  37.975  77.426  0.00  0.00     0.207 C 
ATOM     39  C8  ASG d 810      -2.639  40.390  72.511  0.00  0.00     0.117 C 
ATOM     40  C5  ASG d 810      -0.165  38.972  78.408  0.00  0.00     0.181 C 
ATOM     41  O4  ASG d 810       0.158  37.246  76.651  0.00  0.00    -0.246 OA
ATOM     42  C7  ASG d 810      -1.505  40.015  73.403  0.00  0.00     0.214 C 
ATOM     43  OSC ASG d 810       1.662  35.219  76.216  0.00  0.00    -0.572 OA
ATOM     44  C3  ASG d 810      -1.669  38.703  76.418  0.00  0.00     0.185 C 
ATOM     45  OSB ASG d 810      -0.850  35.030  76.002  0.00  0.00    -0.572 OA
ATOM     46  C1  ASG d 810      -0.328  40.762  76.796  0.00  0.00     0.286 C 
ATOM     47  O7  ASG d 810      -0.512  39.441  72.966  0.00  0.00    -0.274 OA
ATOM     48  O1  ASG d 810       0.513  41.726  76.169  0.00  0.00    -0.348 OA
ATOM     49  N   ASG d 810      -1.655  40.323  74.697  0.00  0.00    -0.349 N 
ATOM     50  O5  ASG d 810       0.509  40.040  77.710  0.00  0.00    -0.349 OA
ATOM     51  C2  ASG d 810      -0.820  39.762  75.734  0.00  0.00     0.171 C 
ATOM     52  C6  ASG d 810       0.832  38.303  79.342  0.00  0.00     0.199 C 
ATOM     53  O3  ASG d 810      -2.190  37.768  75.450  0.00  0.00    -0.348 OA
ATOM     54  S   ASG d 810       0.227  35.618  76.788  0.00  0.00     0.252 S 
ATOM     55  OSA ASG d 810       0.175  35.296  78.210  0.00  0.00    -0.572 OA
ATOM     56  H   ASG d 810       2.179  39.127  80.501  0.00  0.00     0.209 HD
ATOM     57  H   ASG d 810      -2.363  40.958  74.952  0.00  0.00     0.163 HD
ATOM     58  O6B GCT d 811      -0.851  45.044  77.139  0.00  0.00    -0.648 OA
ATOM     59  C3  GCT d 811       2.395  42.601  77.881  0.00  0.00     0.183 C 
ATOM     60  O6A GCT d 811       0.450  46.406  75.976  0.00  0.00    -0.774 OA
ATOM     61  O5  GCT d 811       2.475  44.468  75.930  0.00  0.00    -0.340 OA
ATOM     62  C4  GCT d 811       1.035  43.008  77.307  0.00  0.00     0.195 C 
ATOM     63  O3  GCT d 811       2.198  41.810  79.037  0.00  0.00    -0.390 OA
ATOM     64  C1  GCT d 811       3.422  44.660  76.988  0.00  0.00     0.292 C 
ATOM     65  C5  GCT d 811       1.103  44.057  76.194  0.00  0.00     0.253 C 
ATOM     66  O2  GCT d 811       4.269  43.662  78.927  0.00  0.00    -0.388 OA
ATOM     67  C6  GCT d 811       0.187  45.252  76.452  0.00  0.00     0.172 C 
ATOM     68  C2  GCT d 811       3.067  43.904  78.256  0.00  0.00     0.204 C 
ATOM     69  H   GCT d 811       1.227  46.538  75.469  0.00  0.00     0.167 HD
ATOM     70  H   GCT d 811       1.669  42.306  79.681  0.00  0.00     0.210 HD
ATOM     71  H   GCT d 811       4.089  43.178  79.748  0.00  0.00     0.210 HD
ENDROOT
TORSDOF 25
