REMARK 7 active torsions
REMARK    1  A    between atoms: atom2  and  atom_
REMARK    2  A    between atoms: atom7  and  atom_
REMARK    3  A    between atoms: atom3  and  atom_
REMARK    4  A    between atoms: atom5  and  atom_
REMARK    5  A    between atoms: atom1  and  atom8
REMARK    6  A    between atoms: atom6  and  atom_
REMARK    7  A    between atoms: atom4  and  atom_
ROOT
ATOM      1  O5  NAG d 810       0.414  40.061  78.391  0.00  0.00    -0.349 OA
ATOM      2  C3  NAG d 810      -1.809  38.560  77.308  0.00  0.00     0.183 C 
ATOM      3  C2  NAG d 810      -1.038  39.585  76.514  0.00  0.00     0.171 C 
ATOM      4  C1  NAG d 810      -0.501  40.676  77.472  0.00  0.00     0.282 C 
ATOM      5  C5  NAG d 810      -0.205  39.050  79.188  0.00  0.00     0.179 C 
ATOM      6  C4  NAG d 810      -0.822  37.949  78.296  0.00  0.00     0.180 C 
ENDROOT
BRANCH   2   7
ATOM      7  O3  NAG d 810      -2.421  37.590  76.438  0.00  0.00    -0.348 OA
BRANCH   7   8
ATOM      8  C1  GAD d 809      -3.723  37.246  76.385  0.00  0.00     0.298 C 
ATOM      9  C2  GAD d 809      -4.104  36.394  75.164  0.00  0.00     0.206 C 
ATOM     10  C3  GAD d 809      -5.614  36.427  74.926  0.00  0.00     0.177 C 
ATOM     11  C4  GAD d 809      -6.392  37.137  76.078  0.00  0.00     0.051 C 
ATOM     12  C5  GAD d 809      -5.905  37.095  77.324  0.00  0.00     0.144 C 
ATOM     13  O5  GAD d 809      -4.543  36.637  77.411  0.00  0.00    -0.311 OA
ATOM     14  O2  GAD d 809      -3.521  36.881  73.980  0.00  0.00    -0.388 OA
ATOM     15  H   GAD d 809      -3.850  37.776  73.802  0.00  0.00     0.210 HD
ATOM     16  O3  GAD d 809      -6.085  35.126  74.525  0.00  0.00    -0.389 OA
ATOM     17  H   GAD d 809      -5.919  34.488  75.237  0.00  0.00     0.210 HD
ATOM     18  C6  GAD d 809      -6.580  37.539  78.633  0.00  0.00     0.200 C 
ATOM     19  O6A GAD d 809      -7.734  38.089  78.693  0.00  0.00    -0.645 OA
BRANCH  18  20
ATOM     20  O6B GAD d 809      -5.850  37.256  79.622  0.00  0.00    -0.771 OA
ATOM     21  H   GAD d 809      -5.015  36.852  79.488  0.00  0.00     0.167 HD
ENDBRANCH  18  20
ENDBRANCH   7   8
ENDBRANCH   2   7
BRANCH   3  22
ATOM     22  N2  NAG d 810      -1.919  40.128  75.518  0.00  0.00    -0.349 N 
ATOM     23  C7  NAG d 810      -1.822  39.844  74.227  0.00  0.00     0.214 C 
ATOM     24  C8  NAG d 810      -3.013  40.247  73.372  0.00  0.00     0.117 C 
ATOM     25  O7  NAG d 810      -0.824  39.309  73.772  0.00  0.00    -0.274 OA
ATOM     26  H   NAG d 810      -2.631  40.742  75.809  0.00  0.00     0.163 HD
ENDBRANCH   3  22
BRANCH   4  29
ATOM     29  O1  NAG d 810       0.139  41.727  76.743  0.00  0.00    -0.369 OA
ATOM     30  H   NAG d 810       0.885  41.364  76.241  0.00  0.00     0.212 HD
ENDBRANCH   4  29
BRANCH   5  31
ATOM     31  C6  NAG d 810       0.843  38.351  80.057  0.00  0.00     0.198 C 
ATOM     32  O6  NAG d 810       1.476  39.369  80.756  0.00  0.00    -0.398 OA
ATOM     33  H   NAG d 810       2.159  38.990  81.331  0.00  0.00     0.209 HD
ENDBRANCH   5  31
BRANCH   6  27
ATOM     27  O4  NAG d 810      -1.442  36.909  79.050  0.00  0.00    -0.390 OA
ATOM     28  H   NAG d 810      -1.811  36.247  78.445  0.00  0.00     0.210 HD
ENDBRANCH   6  27
TORSDOF 7
