REMARK  0 active torsions:
REMARK  status: ('A' for Active; 'I' for Inactive)
REMARK       I    between atoms: C7_2  and  N2_45 
REMARK       I    between atoms: C1_3  and  O4_93 
REMARK       I    between atoms: C1_4  and  O3_83 
REMARK       I    between atoms: C4_5  and  O4_58 
REMARK       I    between atoms: O2_6  and  C2_66 
REMARK       I    between atoms: N2_8  and  C2_63 
REMARK       I    between atoms: N2_8  and  C7_89 
REMARK       I    between atoms: C3_9  and  O3_29 
REMARK       I    between atoms: C4_11  and  O4_32 
REMARK       I    between atoms: O3_12  and  C3_54 
REMARK       I    between atoms: N2_13  and  C2_71 
REMARK       I    between atoms: N2_13  and  C7_38 
REMARK       I    between atoms: C3_15  and  O3_85 
REMARK       I    between atoms: C6_16  and  C5_27 
REMARK       I    between atoms: C6_16  and  O6_21 
REMARK       I    between atoms: C4_18  and  O4_93 
REMARK       I    between atoms: N2_19  and  C2_76 
REMARK       I    between atoms: N2_19  and  C7_73 
REMARK       I    between atoms: C4_20  and  O4_91 
REMARK       I    between atoms: O6_22  and  C6_50 
REMARK       I    between atoms: C4_25  and  O4_67 
REMARK       I    between atoms: C1_26  and  O3_30 
REMARK       I    between atoms: O3_29  and  C1_65 
REMARK       I    between atoms: O3_30  and  C3_36 
REMARK       I    between atoms: O6_31  and  C6_69 
REMARK       I    between atoms: O6B_33  and  C6_60 
REMARK       I    between atoms: O6_34  and  C6_77 
REMARK       I    between atoms: O1_35  and  C1_82 
REMARK       I    between atoms: O4_40  and  C4_59 
REMARK       I    between atoms: C5_42  and  C6_50 
REMARK       I    between atoms: C6_44  and  C5_81 
REMARK       I    between atoms: C6_44  and  O6A_72 
REMARK       I    between atoms: N2_45  and  C2_86 
REMARK       I    between atoms: C6_47  and  C5_61 
REMARK       I    between atoms: C6_47  and  O6B_68 
REMARK       I    between atoms: O3_48  and  C3_51 
REMARK       I    between atoms: O3_52  and  C3_90 
REMARK       I    between atoms: C4_53  and  O4_57 
REMARK       I    between atoms: O2_55  and  C2_74 
REMARK       I    between atoms: C2_56  and  O2_88 
REMARK       I    between atoms: O4_58  and  C1_78 
REMARK       I    between atoms: C6_60  and  C5_87 
REMARK       I    between atoms: C6_69  and  C5_79 
REMARK       I    between atoms: C3_75  and  O3_83 
REMARK       I    between atoms: C6_77  and  C5_84 
REMARK       I    between atoms: O4_91  and  C1_92 
ROOT
ATOM      1  C8  NAG d1175       3.655 -14.006  22.542  0.00  0.00     0.117 C 
ATOM      2  N2  NAG d1175       3.381 -14.297  20.168  0.00  0.00    -0.349 N 
ATOM      3  O7  NAG d1175       4.919 -15.561  21.237  0.00  0.00    -0.274 OA
ATOM      4  O6  NAG d1175      -1.646 -16.533  16.944  0.00  0.00    -0.398 OA
ATOM      5  C4  NAG d1175       1.950 -15.587  16.868  0.00  0.00     0.180 C 
ATOM      6  O1  NAG d1175       0.972 -15.675  20.986  0.00  0.00    -0.369 OA
ATOM      7  C5  NAG d1175       0.530 -15.710  17.425  0.00  0.00     0.179 C 
ATOM      8  C6  NAG d1175      -0.299 -16.636  16.543  0.00  0.00     0.198 C 
ATOM      9  O5  NAG d1175       0.527 -16.183  18.764  0.00  0.00    -0.349 OA
ATOM     10  C2  NAG d1175       2.668 -15.238  19.310  0.00  0.00     0.171 C 
ATOM     11  O4  NAG d1175       1.859 -14.890  15.639  0.00  0.00    -0.390 OA
ATOM     12  C3  NAG d1175       2.925 -14.888  17.834  0.00  0.00     0.183 C 
ATOM     13  C1  NAG d1175       1.171 -15.276  19.644  0.00  0.00     0.282 C 
ATOM     14  O3  NAG d1175       4.288 -15.199  17.546  0.00  0.00    -0.348 OA
ATOM     15  C7  NAG d1175       4.038 -14.693  21.260  0.00  0.00     0.214 C 
ATOM     16  H   NAG d1175       3.377 -13.341  19.934  0.00  0.00     0.163 HD
ATOM     17  H   NAG d1175      -2.192 -17.116  16.394  0.00  0.00     0.209 HD
ATOM     18  H   NAG d1175       0.022 -15.694  21.180  0.00  0.00     0.212 HD
ATOM     19  H   NAG d1175       1.488 -14.007  15.795  0.00  0.00     0.210 HD
ATOM     20  C7  NAG d1177       6.883 -10.867  10.942  0.00  0.00     0.214 C 
ATOM     21  C8  NAG d1177       5.559 -11.053  10.264  0.00  0.00     0.117 C 
ATOM     22  C3  NAG d1177       9.988 -12.536  11.025  0.00  0.00     0.183 C 
ATOM     23  C4  NAG d1177      11.181 -12.909  11.892  0.00  0.00     0.180 C 
ATOM     24  C6  NAG d1177      11.914 -14.345  13.860  0.00  0.00     0.198 C 
ATOM     25  O6  NAG d1177      11.755 -13.741  15.131  0.00  0.00    -0.398 OA
ATOM     26  C5  NAG d1177      10.765 -13.946  12.935  0.00  0.00     0.179 C 
ATOM     27  O5  NAG d1177       9.695 -13.443  13.708  0.00  0.00    -0.349 OA
ATOM     28  O3  NAG d1177      10.371 -11.477  10.178  0.00  0.00    -0.348 OA
ATOM     29  O4  NAG d1177      12.195 -13.404  11.039  0.00  0.00    -0.390 OA
ATOM     30  O7  NAG d1177       7.209  -9.763  11.390  0.00  0.00    -0.274 OA
ATOM     31  N2  NAG d1177       7.644 -11.957  10.992  0.00  0.00    -0.349 N 
ATOM     32  C1  NAG d1177       8.526 -13.158  12.957  0.00  0.00     0.286 C 
ATOM     33  C2  NAG d1177       8.794 -12.115  11.871  0.00  0.00     0.171 C 
ATOM     34  H   NAG d1177      11.755 -12.776  15.033  0.00  0.00     0.209 HD
ATOM     35  H   NAG d1177      11.862 -14.176  10.555  0.00  0.00     0.210 HD
ATOM     36  H   NAG d1177       7.415 -12.706  10.396  0.00  0.00     0.163 HD
ATOM     37  C1  NAG d1179      11.353 -12.243   3.696  0.00  0.00     0.286 C 
ATOM     38  N2  NAG d1179      10.489 -14.471   3.160  0.00  0.00    -0.349 N 
ATOM     39  O3  NAG d1179      10.476 -13.689   0.346  0.00  0.00    -0.348 OA
ATOM     40  O6  NAG d1179      11.675  -8.800   1.278  0.00  0.00    -0.398 OA
ATOM     41  C3  NAG d1179      11.362 -13.125   1.295  0.00  0.00     0.183 C 
ATOM     42  C7  NAG d1179       9.268 -14.957   3.376  0.00  0.00     0.214 C 
ATOM     43  O5  NAG d1179      11.602 -10.962   3.158  0.00  0.00    -0.349 OA
ATOM     44  C8  NAG d1179       9.102 -15.931   4.502  0.00  0.00     0.117 C 
ATOM     45  C4  NAG d1179      11.707 -11.701   0.872  0.00  0.00     0.180 C 
ATOM     46  O4  NAG d1179      12.495 -11.728  -0.300  0.00  0.00    -0.390 OA
ATOM     47  C6  NAG d1179      12.819  -9.549   1.646  0.00  0.00     0.198 C 
ATOM     48  O7  NAG d1179       8.292 -14.642   2.698  0.00  0.00    -0.274 OA
ATOM     49  C2  NAG d1179      10.668 -13.119   2.655  0.00  0.00     0.171 C 
ATOM     50  C5  NAG d1179      12.434 -10.983   2.011  0.00  0.00     0.179 C 
ATOM     51  H   NAG d1179      11.277 -15.032   3.344  0.00  0.00     0.163 HD
ATOM     52  H   NAG d1179      11.940  -7.895   1.051  0.00  0.00     0.209 HD
ATOM     53  H   NAG d1179      13.317 -12.213  -0.126  0.00  0.00     0.210 HD
ATOM     54  C1  BDP d1176       4.958 -14.208  16.735  0.00  0.00     0.292 C 
ATOM     55  C4  BDP d1176       6.904 -13.701  14.604  0.00  0.00     0.195 C 
ATOM     56  C3  BDP d1176       7.328 -13.452  16.044  0.00  0.00     0.183 C 
ATOM     57  O6A BDP d1176       5.098 -15.227  12.776  0.00  0.00    -0.648 OA
ATOM     58  O6B BDP d1176       4.343 -13.165  12.431  0.00  0.00    -0.774 OA
ATOM     59  O5  BDP d1176       4.818 -14.577  15.392  0.00  0.00    -0.340 OA
ATOM     60  C2  BDP d1176       6.446 -14.119  17.097  0.00  0.00     0.204 C 
ATOM     61  O4  BDP d1176       7.454 -12.686  13.786  0.00  0.00    -0.348 OA
ATOM     62  C6  BDP d1176       4.901 -14.045  13.119  0.00  0.00     0.172 C 
ATOM     63  O3  BDP d1176       8.670 -13.862  16.210  0.00  0.00    -0.390 OA
ATOM     64  C5  BDP d1176       5.385 -13.661  14.501  0.00  0.00     0.253 C 
ATOM     65  O2  BDP d1176       6.579 -13.340  18.261  0.00  0.00    -0.388 OA
ATOM     66  H   BDP d1176       4.238 -12.299  12.773  0.00  0.00     0.167 HD
ATOM     67  H   BDP d1176       8.738 -14.817  16.055  0.00  0.00     0.210 HD
ATOM     68  H   BDP d1176       6.266 -12.439  18.084  0.00  0.00     0.210 HD
ATOM     69  O2  BDP d1180       9.383 -16.403   0.264  0.00  0.00    -0.388 OA
ATOM     70  C4  BDP d1180      11.496 -16.279  -2.795  0.00  0.00     0.195 C 
ATOM     71  O6A BDP d1180      14.823 -15.497  -2.658  0.00  0.00    -0.648 OA
ATOM     72  C1  BDP d1180      11.046 -14.817  -0.334  0.00  0.00     0.292 C 
ATOM     73  O5  BDP d1180      11.867 -14.387  -1.397  0.00  0.00    -0.340 OA
ATOM     74  C6  BDP d1180      13.699 -14.978  -2.862  0.00  0.00     0.172 C 
ATOM     75  O3  BDP d1180       9.241 -17.097  -2.678  0.00  0.00    -0.390 OA
ATOM     76  C3  BDP d1180      10.359 -16.754  -1.885  0.00  0.00     0.183 C 
ATOM     77  C5  BDP d1180      12.529 -15.474  -2.010  0.00  0.00     0.253 C 
ATOM     78  C2  BDP d1180       9.919 -15.714  -0.846  0.00  0.00     0.204 C 
ATOM     79  O6B BDP d1180      13.480 -14.074  -3.705  0.00  0.00    -0.774 OA
ATOM     80  O4  BDP d1180      12.148 -17.402  -3.345  0.00  0.00    -0.348 OA
ATOM     81  H   BDP d1180       9.098 -15.763   0.935  0.00  0.00     0.210 HD
ATOM     82  H   BDP d1180       9.504 -17.755  -3.341  0.00  0.00     0.210 HD
ATOM     83  H   BDP d1180      12.615 -13.729  -3.808  0.00  0.00     0.167 HD
ATOM     84  O3  BDP d1178      10.281  -9.530   5.809  0.00  0.00    -0.390 OA
ATOM     85  O6B BDP d1178      11.759 -14.824   5.567  0.00  0.00    -0.648 OA
ATOM     86  C4  BDP d1178      11.000 -11.814   6.022  0.00  0.00     0.195 C 
ATOM     87  C6  BDP d1178      12.117 -13.987   6.430  0.00  0.00     0.172 C 
ATOM     88  C3  BDP d1178      10.101 -10.712   6.556  0.00  0.00     0.183 C 
ATOM     89  O2  BDP d1178       9.522  -9.498   8.508  0.00  0.00    -0.388 OA
ATOM     90  C1  BDP d1178      10.241 -11.783   8.779  0.00  0.00     0.292 C 
ATOM     91  O6A BDP d1178      13.288 -13.880   6.871  0.00  0.00    -0.774 OA
ATOM     92  C2  BDP d1178      10.404 -10.474   8.014  0.00  0.00     0.204 C 
ATOM     93  O5  BDP d1178      11.197 -12.708   8.310  0.00  0.00    -0.340 OA
ATOM     94  C5  BDP d1178      11.031 -13.035   6.935  0.00  0.00     0.253 C 
ATOM     95  O4  BDP d1178      10.438 -12.211   4.804  0.00  0.00    -0.348 OA
ATOM     96  H   BDP d1178      10.082  -9.704   4.876  0.00  0.00     0.210 HD
ATOM     97  H   BDP d1178       9.640  -8.674   8.010  0.00  0.00     0.210 HD
ATOM     98  H   BDP d1178      13.488 -13.231   7.517  0.00  0.00     0.167 HD
ATOM     99  N2  NAG d1181      14.147 -18.008  -5.197  0.00  0.00    -0.349 N 
ATOM    100  O7  NAG d1181      16.133 -19.057  -5.239  0.00  0.00    -0.274 OA
ATOM    101  O6  NAG d1181       7.727 -17.917  -5.842  0.00  0.00    -0.398 OA
ATOM    102  O4  NAG d1181      10.675 -19.354  -8.284  0.00  0.00    -0.390 OA
ATOM    103  O5  NAG d1181      10.500 -18.191  -4.826  0.00  0.00    -0.349 OA
ATOM    104  O3  NAG d1181      13.340 -19.961  -7.238  0.00  0.00    -0.391 OA
ATOM    105  C4  NAG d1181      11.020 -19.333  -6.917  0.00  0.00     0.180 C 
ATOM    106  C8  NAG d1181      15.019 -18.924  -3.133  0.00  0.00     0.117 C 
ATOM    107  C7  NAG d1181      15.146 -18.667  -4.610  0.00  0.00     0.214 C 
ATOM    108  C2  NAG d1181      12.817 -18.587  -5.317  0.00  0.00     0.170 C 
ATOM    109  C6  NAG d1181       8.647 -18.951  -6.125  0.00  0.00     0.198 C 
ATOM    110  C5  NAG d1181      10.071 -18.391  -6.162  0.00  0.00     0.179 C 
ATOM    111  C3  NAG d1181      12.489 -18.923  -6.774  0.00  0.00     0.177 C 
ATOM    112  C1  NAG d1181      11.787 -17.632  -4.717  0.00  0.00     0.286 C 
ATOM    113  H   NAG d1181      14.313 -17.107  -5.558  0.00  0.00     0.163 HD
ATOM    114  H   NAG d1181       6.828 -18.281  -5.821  0.00  0.00     0.209 HD
ATOM    115  H   NAG d1181      11.275 -19.949  -8.760  0.00  0.00     0.210 HD
ATOM    116  H   NAG d1181      13.125 -20.167  -8.161  0.00  0.00     0.210 HD
ENDROOT
TORSDOF 42
