REMARK  0 active torsions:
REMARK  status: ('A' for Active; 'I' for Inactive)
REMARK       I    between atoms: C2_1  and  N_39 
REMARK       I    between atoms: O6_2  and  C6_25 
REMARK       I    between atoms: O6_2  and  S2_98 
REMARK       I    between atoms: C2_5  and  N_20 
REMARK       I    between atoms: C1_6  and  O1_9 
REMARK       I    between atoms: O3_7  and  C3_50 
REMARK       I    between atoms: O1_9  and  C4_44 
REMARK       I    between atoms: C3_10  and  O3_31 
REMARK       I    between atoms: C4_11  and  O1_66 
REMARK       I    between atoms: C5_15  and  C6_18 
REMARK       I    between atoms: O1_16  and  C1_87 
REMARK       I    between atoms: O1_16  and  C4_93 
REMARK       I    between atoms: C3_17  and  O3_54 
REMARK       I    between atoms: C6_18  and  O6_73 
REMARK       I    between atoms: N_20  and  S1_69 
REMARK       I    between atoms: S2_21  and  O6_73 
REMARK       I    between atoms: C4_24  and  O1_68 
REMARK       I    between atoms: C6_25  and  C5_84 
REMARK       I    between atoms: O3_27  and  C3_85 
REMARK       I    between atoms: C6_28  and  C5_78 
REMARK       I    between atoms: C6_28  and  O62_105 
REMARK       I    between atoms: O6_30  and  C6_81 
REMARK       I    between atoms: O6_30  and  S2_75 
REMARK       I    between atoms: O62_32  and  C6_41 
REMARK       I    between atoms: S_34  and  O2_97 
REMARK       I    between atoms: C2_35  and  O2_48 
REMARK       I    between atoms: O3_36  and  C3_82 
REMARK       I    between atoms: C2_37  and  O2_97 
REMARK       I    between atoms: N_39  and  S1_60 
REMARK       I    between atoms: C6_41  and  C5_76 
REMARK       I    between atoms: C5_42  and  C6_81 
REMARK       I    between atoms: C3_43  and  O3_62 
REMARK       I    between atoms: C1_45  and  O1_92 
REMARK       I    between atoms: C2_47  and  O2_100 
REMARK       I    between atoms: O2_48  and  S_89 
REMARK       I    between atoms: C5_52  and  C6_65 
REMARK       I    between atoms: S1_55  and  N_90 
REMARK       I    between atoms: C1_57  and  O1_68 
REMARK       I    between atoms: C6_65  and  O62_86 
REMARK       I    between atoms: O1_66  and  C1_101 
REMARK       I    between atoms: S_74  and  O2_100 
REMARK       I    between atoms: O1_79  and  C1_95 
REMARK       I    between atoms: C2_88  and  N_90 
REMARK       I    between atoms: O1_92  and  C4_103 
ROOT
ATOM      1  C2  SGN d   6      55.235 -19.543  15.150  0.00  0.00     0.160 C 
ATOM      2  O5S SGN d   6      56.635 -17.581  21.401  0.00  0.00    -0.572 OA
ATOM      3  C5  SGN d   6      56.657 -20.444  17.540  0.00  0.00     0.181 C 
ATOM      4  O1  SGN d   6      55.406 -22.001  15.354  0.00  0.00    -0.348 OA
ATOM      5  C6  SGN d   6      56.883 -20.388  19.075  0.00  0.00     0.227 C 
ATOM      6  S2  SGN d   6      57.627 -18.326  20.684  0.00  0.00     0.251 S 
ATOM      7  O1S SGN d   6      54.155 -17.284  13.695  0.00  0.00    -0.582 OA
ATOM      8  C4  SGN d   6      57.104 -19.164  16.761  0.00  0.00     0.186 C 
ATOM      9  O4S SGN d   6      58.616 -17.476  20.089  0.00  0.00    -0.572 OA
ATOM     10  O6S SGN d   6      58.195 -19.372  21.487  0.00  0.00    -0.572 OA
ATOM     11  O3  SGN d   6      57.159 -18.185  14.571  0.00  0.00    -0.391 OA
ATOM     12  N   SGN d   6      54.810 -19.706  13.751  0.00  0.00    -0.189 NA
ATOM     13  O2S SGN d   6      55.548 -18.188  11.970  0.00  0.00    -0.582 OA
ATOM     14  O5  SGN d   6      55.244 -20.715  17.308  0.00  0.00    -0.349 OA
ATOM     15  S1  SGN d   6      54.422 -18.400  12.835  0.00  0.00     0.183 S 
ATOM     16  O6  SGN d   6      56.836 -19.029  19.513  0.00  0.00    -0.254 OA
ATOM     17  O3S SGN d   6      53.250 -18.807  12.113  0.00  0.00    -0.582 OA
ATOM     18  C3  SGN d   6      56.765 -19.348  15.269  0.00  0.00     0.173 C 
ATOM     19  C1  SGN d   6      54.832 -20.831  15.935  0.00  0.00     0.282 C 
ATOM     20  H   SGN d   6      56.951 -18.287  13.629  0.00  0.00     0.210 HD
ATOM     21  H   SGN d   6      53.986 -20.307  13.765  0.00  0.00     0.143 HD
ATOM     22  O6  SGN d   2      67.341  -6.087  17.891  0.00  0.00    -0.254 OA
ATOM     23  C2  SGN d   2      69.786  -8.490  14.932  0.00  0.00     0.157 C 
ATOM     24  C1  SGN d   2      68.322  -8.965  15.147  0.00  0.00     0.282 C 
ATOM     25  O1  SGN d   2      68.279 -10.356  15.424  0.00  0.00    -0.348 OA
ATOM     26  N   SGN d   2      70.388  -9.314  13.869  0.00  0.00    -0.189 NA
ATOM     27  C6  SGN d   2      67.579  -7.358  18.460  0.00  0.00     0.225 C 
ATOM     28  O3  SGN d   2      71.893  -8.163  16.079  0.00  0.00    -0.394 OA
ATOM     29  O6S SGN d   2      66.263  -5.083  19.796  0.00  0.00    -0.572 OA
ATOM     30  O1S SGN d   2      70.677  -7.215  12.512  0.00  0.00    -0.582 OA
ATOM     31  O5  SGN d   2      67.711  -8.205  16.204  0.00  0.00    -0.352 OA
ATOM     32  O2S SGN d   2      72.050  -9.122  12.065  0.00  0.00    -0.582 OA
ATOM     33  O5S SGN d   2      65.079  -5.370  17.743  0.00  0.00    -0.572 OA
ATOM     34  S1  SGN d   2      70.739  -8.645  12.406  0.00  0.00     0.183 S 
ATOM     35  C4  SGN d   2      69.874  -7.693  17.294  0.00  0.00     0.067 C 
ATOM     36  O4S SGN d   2      66.822  -3.741  17.897  0.00  0.00    -0.572 OA
ATOM     37  C5  SGN d   2      68.415  -8.191  17.480  0.00  0.00     0.152 C 
ATOM     38  C3  SGN d   2      70.565  -8.604  16.262  0.00  0.00     0.144 C 
ATOM     39  O3S SGN d   2      69.726  -9.154  11.522  0.00  0.00    -0.582 OA
ATOM     40  S2  SGN d   2      66.322  -4.998  18.363  0.00  0.00     0.251 S 
ATOM     41  H   SGN d   2      69.743 -10.084  13.693  0.00  0.00     0.143 HD
ATOM     42  H   SGN d   2      72.336  -8.732  15.430  0.00  0.00     0.210 HD
ATOM     43  O61 IDS d   5      61.164 -16.462  14.208  0.00  0.00    -0.648 OA
ATOM     44  O3  IDS d   5      61.192 -21.281  16.629  0.00  0.00    -0.390 OA
ATOM     45  O62 IDS d   5      61.619 -18.131  13.065  0.00  0.00    -0.774 OA
ATOM     46  O2S IDS d   5      60.894 -20.021  20.947  0.00  0.00    -0.572 OA
ATOM     47  C6  IDS d   5      61.248 -17.667  14.120  0.00  0.00     0.172 C 
ATOM     48  C2  IDS d   5      60.482 -19.453  18.040  0.00  0.00     0.231 C 
ATOM     49  C3  IDS d   5      61.638 -20.065  17.203  0.00  0.00     0.185 C 
ATOM     50  O5  IDS d   5      60.062 -17.867  16.212  0.00  0.00    -0.340 OA
ATOM     51  O3S IDS d   5      63.043 -19.425  20.106  0.00  0.00    -0.572 OA
ATOM     52  C1  IDS d   5      59.430 -18.644  17.222  0.00  0.00     0.294 C 
ATOM     53  O1  IDS d   5      58.484 -19.536  16.682  0.00  0.00    -0.348 OA
ATOM     54  S   IDS d   5      61.713 -18.973  20.397  0.00  0.00     0.252 S 
ATOM     55  C5  IDS d   5      60.903 -18.582  15.292  0.00  0.00     0.253 C 
ATOM     56  O1S IDS d   5      61.691 -17.778  21.191  0.00  0.00    -0.572 OA
ATOM     57  O2  IDS d   5      61.047 -18.592  19.021  0.00  0.00    -0.244 OA
ATOM     58  C4  IDS d   5      62.130 -19.137  16.061  0.00  0.00     0.195 C 
ATOM     59  H   IDS d   5      60.880 -21.874  17.330  0.00  0.00     0.210 HD
ATOM     60  H   IDS d   5      61.695 -19.059  12.962  0.00  0.00     0.167 HD
ATOM     61  O5S SGN d   4      67.078 -19.304  13.701  0.00  0.00    -0.572 OA
ATOM     62  O6S SGN d   4      67.705 -18.120  11.725  0.00  0.00    -0.572 OA
ATOM     63  C3  SGN d   4      64.442 -15.522  16.970  0.00  0.00     0.173 C 
ATOM     64  C4  SGN d   4      65.208 -15.508  15.627  0.00  0.00     0.186 C 
ATOM     65  O2S SGN d   4      63.774 -15.047  20.476  0.00  0.00    -0.582 OA
ATOM     66  O5  SGN d   4      64.813 -17.952  15.458  0.00  0.00    -0.349 OA
ATOM     67  O6  SGN d   4      66.754 -16.947  13.579  0.00  0.00    -0.254 OA
ATOM     68  O3  SGN d   4      64.915 -14.465  17.785  0.00  0.00    -0.391 OA
ATOM     69  C5  SGN d   4      64.673 -16.685  14.755  0.00  0.00     0.181 C 
ATOM     70  C1  SGN d   4      64.208 -18.032  16.757  0.00  0.00     0.282 C 
ATOM     71  S1  SGN d   4      64.635 -16.182  20.290  0.00  0.00     0.183 S 
ATOM     72  O3S SGN d   4      64.529 -17.129  21.366  0.00  0.00    -0.582 OA
ATOM     73  O4S SGN d   4      68.981 -17.860  13.730  0.00  0.00    -0.572 OA
ATOM     74  S2  SGN d   4      67.694 -18.123  13.158  0.00  0.00     0.251 S 
ATOM     75  C6  SGN d   4      65.358 -16.844  13.386  0.00  0.00     0.227 C 
ATOM     76  C2  SGN d   4      64.719 -16.875  17.663  0.00  0.00     0.160 C 
ATOM     77  N   SGN d   4      64.043 -16.981  18.971  0.00  0.00    -0.189 NA
ATOM     78  O1  SGN d   4      62.797 -18.007  16.650  0.00  0.00    -0.348 OA
ATOM     79  O1S SGN d   4      66.000 -15.811  20.047  0.00  0.00    -0.582 OA
ATOM     80  H   SGN d   4      65.867 -14.573  17.935  0.00  0.00     0.210 HD
ATOM     81  H   SGN d   4      63.088 -16.650  18.834  0.00  0.00     0.143 HD
ATOM     82  O5  IDS d   3      67.445 -13.370  15.535  0.00  0.00    -0.340 OA
ATOM     83  C3  IDS d   3      65.845 -11.105  14.735  0.00  0.00     0.185 C 
ATOM     84  S   IDS d   3      67.023 -12.368  11.375  0.00  0.00     0.252 S 
ATOM     85  C2  IDS d   3      66.006 -12.356  13.840  0.00  0.00     0.231 C 
ATOM     86  C4  IDS d   3      67.018 -10.968  15.734  0.00  0.00     0.195 C 
ATOM     87  C5  IDS d   3      67.219 -12.312  16.487  0.00  0.00     0.253 C 
ATOM     88  O3  IDS d   3      64.635 -11.209  15.467  0.00  0.00    -0.390 OA
ATOM     89  C6  IDS d   3      68.357 -12.305  17.506  0.00  0.00     0.172 C 
ATOM     90  O1  IDS d   3      65.229 -14.132  15.255  0.00  0.00    -0.348 OA
ATOM     91  O1S IDS d   3      66.160 -11.373  10.813  0.00  0.00    -0.572 OA
ATOM     92  O61 IDS d   3      69.515 -12.415  17.162  0.00  0.00    -0.648 OA
ATOM     93  O62 IDS d   3      68.127 -12.186  18.687  0.00  0.00    -0.774 OA
ATOM     94  O3S IDS d   3      66.531 -13.707  11.199  0.00  0.00    -0.572 OA
ATOM     95  O2  IDS d   3      67.034 -12.106  12.909  0.00  0.00    -0.244 OA
ATOM     96  C1  IDS d   3      66.380 -13.643  14.620  0.00  0.00     0.294 C 
ATOM     97  O2S IDS d   3      68.393 -12.225  10.962  0.00  0.00    -0.572 OA
ATOM     98  H   IDS d   3      64.666 -11.996  16.033  0.00  0.00     0.210 HD
ATOM     99  H   IDS d   3      67.243 -12.099  18.986  0.00  0.00     0.167 HD
ATOM    100  O3S IDS d   7      59.455 -24.539  11.284  0.00  0.00    -0.572 OA
ATOM    101  C6  IDS d   7      52.741 -24.172  15.358  0.00  0.00     0.172 C 
ATOM    102  C2  IDS d   7      55.903 -24.058  12.524  0.00  0.00     0.231 C 
ATOM    103  O2S IDS d   7      58.856 -23.668  13.429  0.00  0.00    -0.572 OA
ATOM    104  C3  IDS d   7      55.980 -22.860  13.496  0.00  0.00     0.185 C 
ATOM    105  O2  IDS d   7      57.124 -24.189  11.767  0.00  0.00    -0.244 OA
ATOM    106  O3  IDS d   7      56.195 -21.680  12.747  0.00  0.00    -0.390 OA
ATOM    107  O61 IDS d   7      52.442 -23.239  16.071  0.00  0.00    -0.648 OA
ATOM    108  O1S IDS d   7      58.587 -22.325  11.475  0.00  0.00    -0.572 OA
ATOM    109  C5  IDS d   7      53.847 -24.047  14.307  0.00  0.00     0.253 C 
ATOM    110  O1  IDS d   7      55.114 -26.296  12.416  0.00  0.00    -0.368 OA
ATOM    111  S   IDS d   7      58.594 -23.656  12.016  0.00  0.00     0.252 S 
ATOM    112  C4  IDS d   7      54.672 -22.712  14.340  0.00  0.00     0.195 C 
ATOM    113  C1  IDS d   7      55.651 -25.369  13.312  0.00  0.00     0.291 C 
ATOM    114  O5  IDS d   7      54.765 -25.158  14.424  0.00  0.00    -0.340 OA
ATOM    115  O62 IDS d   7      52.126 -25.207  15.503  0.00  0.00    -0.774 OA
ATOM    117  H   IDS d   7      55.727 -26.422  11.675  0.00  0.00     0.212 HD
ATOM    118  H   IDS d   7      52.328 -25.951  14.970  0.00  0.00     0.167 HD
ENDROOT
TORSDOF 44
