REMARK  11 active torsions:
REMARK  status: ('A' for Active; 'I' for Inactive)
REMARK    1  A    between atoms: C5_1  and  C6_18 
REMARK    2  A    between atoms: C5_2  and  C6_30 
REMARK    3  A    between atoms: O4_3  and  C4_14 
REMARK    4  A    between atoms: C2_4  and  O2_23 
REMARK       I    between atoms: C7_5  and  N_24 
REMARK    5  A    between atoms: S_9  and  O6_13 
REMARK    6  A    between atoms: O1_12  and  C1_29 
REMARK    7  A    between atoms: O6_13  and  C6_18 
REMARK    8  A    between atoms: C3_15  and  O3_28 
REMARK    9  A    between atoms: C3_16  and  O3_20 
REMARK   10  A    between atoms: C2_19  and  N_24 
REMARK   11  A    between atoms: C1_26  and  O3_28 
ROOT
ATOM      1  C5  NG6 d 399      15.303  -2.829  30.317  0.00  0.00     0.181 C 
ATOM      2  O5  NG6 d 399      15.040  -3.749  31.371  0.00  0.00    -0.349 OA
ATOM      3  C4  NG6 d 399      14.027  -2.601  29.523  0.00  0.00     0.180 C 
ATOM      4  C3  NG6 d 399      13.543  -3.923  28.924  0.00  0.00     0.183 C 
ATOM      5  C2  NG6 d 399      13.497  -5.048  29.971  0.00  0.00     0.171 C 
ATOM      6  C1  NG6 d 399      14.754  -5.057  30.859  0.00  0.00     0.282 C 
ENDROOT
BRANCH   4   7
ATOM      7  O3  NG6 d 399      12.222  -3.736  28.429  0.00  0.00    -0.348 OA
BRANCH   7   8
ATOM      8  C1  GCD d 400      12.251  -3.495  27.030  0.00  0.00     0.298 C 
ATOM      9  C2  GCD d 400      11.013  -4.147  26.442  0.00  0.00     0.206 C 
ATOM     10  C3  GCD d 400      10.947  -3.845  24.950  0.00  0.00     0.177 C 
ATOM     11  C4  GCD d 400      10.972  -2.333  24.815  0.00  0.00     0.051 C 
ATOM     12  C5  GCD d 400      11.592  -1.549  25.780  0.00  0.00     0.147 C 
ATOM     13  O5  GCD d 400      12.262  -2.069  26.854  0.00  0.00    -0.311 OA
BRANCH   9  14
ATOM     14  O2  GCD d 400      11.085  -5.553  26.651  0.00  0.00    -0.388 OA
ATOM     15  H   GCD d 400      11.881  -5.903  26.221  0.00  0.00     0.210 HD
ENDBRANCH   9  14
BRANCH  10  16
ATOM     16  O3  GCD d 400       9.717  -4.341  24.411  0.00  0.00    -0.389 OA
ATOM     17  H   GCD d 400       8.971  -3.932  24.877  0.00  0.00     0.210 HD
ENDBRANCH  10  16
BRANCH  12  18
ATOM     18  C6  GCD d 400      11.558  -0.043  25.620  0.00  0.00     0.233 C 
ATOM     19  O6A GCD d 400      12.157   0.635  26.474  0.00  0.00    -0.642 OA
ATOM     20  O6B GCD d 400      10.967   0.431  24.629  0.00  0.00    -0.642 OA
ENDBRANCH  12  18
ENDBRANCH   7   8
ENDBRANCH   4   7
BRANCH   3  21
ATOM     21  O4  NG6 d 399      13.021  -2.053  30.384  0.00  0.00    -0.390 OA
ATOM     22  H   NG6 d 399      13.337  -1.216  30.759  0.00  0.00     0.210 HD
ENDBRANCH   3  21
BRANCH   5  23
ATOM     23  N   NG6 d 399      13.354  -6.347  29.283  0.00  0.00    -0.349 N 
ATOM     24  C7  NG6 d 399      14.413  -7.015  28.832  0.00  0.00     0.214 C 
ATOM     25  C8  NG6 d 399      15.768  -6.333  29.090  0.00  0.00     0.117 C 
ATOM     26  O7  NG6 d 399      14.347  -8.095  28.246  0.00  0.00    -0.274 OA
ATOM     27  H   NG6 d 399      12.455  -6.727  29.155  0.00  0.00     0.163 HD
ENDBRANCH   5  23
BRANCH   1  28
ATOM     28  C6  NG6 d 399      15.759  -1.539  30.970  0.00  0.00     0.227 C 
BRANCH  28  29
ATOM     29  O6  NG6 d 399      16.926  -1.788  31.744  0.00  0.00    -0.254 OA
BRANCH  29  30
ATOM     30  S   NG6 d 399      17.243  -0.932  32.849  0.00  0.00     0.251 S 
ATOM     31  O3S NG6 d 399      17.774  -1.764  33.975  0.00  0.00    -0.572 OA
ATOM     32  O1S NG6 d 399      16.006  -0.209  33.307  0.00  0.00    -0.572 OA
ATOM     33  O2S NG6 d 399      18.273   0.087  32.428  0.00  0.00    -0.572 OA
ENDBRANCH  29  30
ENDBRANCH  28  29
ENDBRANCH   1  28
BRANCH   6  34
ATOM     34  O1  NG6 d 399      14.527  -5.908  31.990  0.00  0.00    -0.369 OA
ATOM     35  H   NG6 d 399      15.317  -5.916  32.552  0.00  0.00     0.212 HD
ENDBRANCH   6  34
TORSDOF 11
