REMARK  0 active torsions:
REMARK  status: ('A' for Active; 'I' for Inactive)
REMARK       I    between atoms: C2_2  and  N_6 
REMARK       I    between atoms: C4_3  and  O4_47 
REMARK       I    between atoms: N_4  and  C2_53 
REMARK       I    between atoms: N_4  and  C7_33 
REMARK       I    between atoms: C3_5  and  O3_72 
REMARK       I    between atoms: N_6  and  C7_36 
REMARK       I    between atoms: C6_7  and  C5_9 
REMARK       I    between atoms: C6_7  and  O6_63 
REMARK       I    between atoms: O2_10  and  C2_82 
REMARK       I    between atoms: O6_11  and  C6_67 
REMARK       I    between atoms: C4_12  and  O4_68 
REMARK       I    between atoms: C5_13  and  C6_67 
REMARK       I    between atoms: C6_14  and  C5_71 
REMARK       I    between atoms: C6_14  and  O6_49 
REMARK       I    between atoms: C2_16  and  O2_22 
REMARK       I    between atoms: C1_17  and  O1_78 
REMARK       I    between atoms: C4_18  and  O4_65 
REMARK       I    between atoms: C6_19  and  C5_50 
REMARK       I    between atoms: C4_20  and  O4_51 
REMARK       I    between atoms: C1_21  and  O3_72 
REMARK       I    between atoms: O3_23  and  C3_28 
REMARK       I    between atoms: C5_25  and  C6_61 
REMARK       I    between atoms: O4_26  and  C4_66 
REMARK       I    between atoms: O4_26  and  S_74 
REMARK       I    between atoms: C3_29  and  O3_84 
REMARK       I    between atoms: C3_30  and  O3_52 
REMARK       I    between atoms: O2_31  and  C2_83 
REMARK       I    between atoms: C1_35  and  O3_84 
REMARK       I    between atoms: C7_37  and  N_81 
REMARK       I    between atoms: C6_42  and  C5_89 
REMARK       I    between atoms: S_43  and  O4_65 
REMARK       I    between atoms: O3_44  and  C3_90 
REMARK       I    between atoms: O4_47  and  C1_87 
REMARK       I    between atoms: O4_51  and  C1_59 
REMARK       I    between atoms: O4_57  and  C4_75 
REMARK       I    between atoms: O4_57  and  C1_76 
REMARK       I    between atoms: O4_68  and  S_70 
REMARK       I    between atoms: N_81  and  C2_88 
ROOT
ATOM      1  O6A BDP d 301      23.381  34.827  43.643  0.00  0.00    -0.646 OA
ATOM      2  C4  BDP d 301      21.624  36.395  41.259  0.00  0.00     0.195 C 
ATOM      3  C2  BDP d 301      22.292  36.774  38.882  0.00  0.00     0.204 C 
ATOM      4  C1  BDP d 301      23.590  36.092  39.202  0.00  0.00     0.289 C 
ATOM      5  C6  BDP d 301      22.856  34.560  42.540  0.00  0.00     0.206 C 
ATOM      6  O2  BDP d 301      22.522  37.715  37.836  0.00  0.00    -0.388 OA
ATOM      7  O5  BDP d 301      23.447  35.105  40.269  0.00  0.00    -0.340 OA
ATOM      8  O3  BDP d 301      20.595  38.138  39.896  0.00  0.00    -0.390 OA
ATOM      9  O6B BDP d 301      22.271  33.521  42.162  0.00  0.00    -0.646 OA
ATOM     10  O4  BDP d 301      21.364  37.047  42.449  0.00  0.00    -0.348 OA
ATOM     11  C5  BDP d 301      22.948  35.671  41.502  0.00  0.00     0.257 C 
ATOM     12  O1  BDP d 301      24.159  35.362  38.010  0.00  0.00    -0.368 OA
ATOM     13  C3  BDP d 301      21.828  37.464  40.156  0.00  0.00     0.183 C 
ATOM     14  H   BDP d 301      23.201  38.349  38.115  0.00  0.00     0.210 HD
ATOM     15  H   BDP d 301      20.292  38.581  40.704  0.00  0.00     0.210 HD
ATOM     16  H   BDP d 301      23.554  34.651  37.747  0.00  0.00     0.212 HD
ATOM     17  C2  ASG d 302      20.245  37.565  44.460  0.00  0.00     0.171 C 
ATOM     18  C3  ASG d 302      18.842  37.701  45.023  0.00  0.00     0.185 C 
ATOM     19  N   ASG d 302      21.013  36.541  45.229  0.00  0.00    -0.349 N 
ATOM     20  C6  ASG d 302      17.294  39.214  41.822  0.00  0.00     0.199 C 
ATOM     21  C5  ASG d 302      18.008  38.259  42.744  0.00  0.00     0.181 C 
ATOM     22  C4  ASG d 302      18.083  38.757  44.202  0.00  0.00     0.207 C 
ATOM     23  O5  ASG d 302      19.348  38.079  42.229  0.00  0.00    -0.349 OA
ATOM     24  C7  ASG d 302      22.131  36.883  45.985  0.00  0.00     0.214 C 
ATOM     25  C8  ASG d 302      22.746  35.696  46.689  0.00  0.00     0.117 C 
ATOM     26  O6  ASG d 302      16.917  38.558  40.615  0.00  0.00    -0.398 OA
ATOM     27  O4  ASG d 302      18.823  39.993  44.229  0.00  0.00    -0.246 OA
ATOM     28  S   ASG d 302      18.056  41.330  44.663  0.00  0.00     0.252 S 
ATOM     29  O3  ASG d 302      18.957  38.150  46.325  0.00  0.00    -0.348 OA
ATOM     30  OSB ASG d 302      17.283  41.819  43.538  0.00  0.00    -0.572 OA
ATOM     31  OSA ASG d 302      17.171  41.060  45.781  0.00  0.00    -0.572 OA
ATOM     32  O7  ASG d 302      22.580  38.014  46.084  0.00  0.00    -0.274 OA
ATOM     33  OSC ASG d 302      19.027  42.329  45.048  0.00  0.00    -0.572 OA
ATOM     34  C1  ASG d 302      20.119  37.134  43.006  0.00  0.00     0.286 C 
ATOM     35  H   ASG d 302      20.722  35.601  45.201  0.00  0.00     0.163 HD
ATOM     36  H   ASG d 302      17.711  38.230  40.164  0.00  0.00     0.209 HD
ATOM     37  N   ASG d 304      13.533  34.573  50.786  0.00  0.00    -0.349 N 
ATOM     38  OSC ASG d 304      15.144  35.609  56.795  0.00  0.00    -0.572 OA
ATOM     39  C6  ASG d 304      15.026  39.217  53.803  0.00  0.00     0.199 C 
ATOM     40  C4  ASG d 304      13.610  37.102  53.667  0.00  0.00     0.207 C 
ATOM     41  C3  ASG d 304      13.004  36.117  52.646  0.00  0.00     0.185 C 
ATOM     42  C7  ASG d 304      14.227  33.467  50.317  0.00  0.00     0.214 C 
ATOM     43  OSA ASG d 304      12.845  35.935  56.302  0.00  0.00    -0.572 OA
ATOM     44  O7  ASG d 304      15.352  33.159  50.675  0.00  0.00    -0.274 OA
ATOM     45  S   ASG d 304      14.191  36.442  56.090  0.00  0.00     0.252 S 
ATOM     46  O5  ASG d 304      15.402  37.612  52.055  0.00  0.00    -0.349 OA
ATOM     47  O6  ASG d 304      15.326  40.418  53.090  0.00  0.00    -0.398 OA
ATOM     48  C2  ASG d 304      14.114  35.513  51.802  0.00  0.00     0.171 C 
ATOM     49  C1  ASG d 304      14.856  36.655  51.100  0.00  0.00     0.286 C 
ATOM     50  C8  ASG d 304      13.440  32.671  49.301  0.00  0.00     0.117 C 
ATOM     51  O4  ASG d 304      14.532  36.419  54.531  0.00  0.00    -0.246 OA
ATOM     52  C5  ASG d 304      14.368  38.207  52.895  0.00  0.00     0.181 C 
ATOM     53  OSB ASG d 304      14.268  37.802  56.593  0.00  0.00    -0.572 OA
ATOM     54  O3  ASG d 304      12.303  35.081  53.315  0.00  0.00    -0.348 OA
ATOM     55  H   ASG d 304      12.628  34.747  50.440  0.00  0.00     0.163 HD
ATOM     56  H   ASG d 304      15.936  40.218  52.362  0.00  0.00     0.209 HD
ATOM     57  O2  BDP d 303      20.128  37.813  48.835  0.00  0.00    -0.388 OA
ATOM     58  C4  BDP d 303      16.525  36.966  49.431  0.00  0.00     0.195 C 
ATOM     59  C1  BDP d 303      18.379  37.317  47.267  0.00  0.00     0.292 C 
ATOM     60  C5  BDP d 303      16.245  36.444  47.996  0.00  0.00     0.257 C 
ATOM     61  C3  BDP d 303      18.039  36.933  49.684  0.00  0.00     0.183 C 
ATOM     62  O5  BDP d 303      16.945  37.286  47.038  0.00  0.00    -0.340 OA
ATOM     63  O4  BDP d 303      15.899  36.136  50.349  0.00  0.00    -0.348 OA
ATOM     64  O3  BDP d 303      18.333  37.427  51.001  0.00  0.00    -0.390 OA
ATOM     65  O6A BDP d 303      14.359  35.375  47.109  0.00  0.00    -0.646 OA
ATOM     66  C6  BDP d 303      14.765  36.444  47.620  0.00  0.00     0.206 C 
ATOM     67  O6B BDP d 303      14.141  37.496  47.866  0.00  0.00    -0.646 OA
ATOM     68  C2  BDP d 303      18.708  37.829  48.660  0.00  0.00     0.204 C 
ATOM     69  H   BDP d 303      20.542  38.390  48.174  0.00  0.00     0.210 HD
ATOM     70  H   BDP d 303      18.012  38.339  51.084  0.00  0.00     0.210 HD
ATOM     71  O6  ASG d 306       7.801  40.633  50.342  0.00  0.00    -0.398 OA
ATOM     72  C5  ASG d 306       6.138  39.010  49.667  0.00  0.00     0.178 C 
ATOM     73  OSB ASG d 306       2.447  39.492  52.622  0.00  0.00    -0.572 OA
ATOM     74  C3  ASG d 306       4.399  37.230  49.064  0.00  0.00     0.066 C 
ATOM     75  O4  ASG d 306       4.113  38.724  50.961  0.00  0.00    -0.249 OA
ATOM     76  O7  ASG d 306       4.805  33.972  51.709  0.00  0.00    -0.274 OA
ATOM     77  C7  ASG d 306       4.984  33.813  50.505  0.00  0.00     0.214 C 
ATOM     78  OSA ASG d 306       3.096  40.984  50.898  0.00  0.00    -0.572 OA
ATOM     79  OSC ASG d 306       1.729  39.117  50.393  0.00  0.00    -0.572 OA
ATOM     80  O5  ASG d 306       6.833  38.071  50.544  0.00  0.00    -0.349 OA
ATOM     81  C4  ASG d 306       4.617  38.681  49.625  0.00  0.00     0.178 C 
ATOM     82  C6  ASG d 306       6.400  40.396  50.214  0.00  0.00     0.198 C 
ATOM     83  C8  ASG d 306       4.978  32.454  49.851  0.00  0.00     0.117 C 
ATOM     84  S   ASG d 306       2.813  39.597  51.221  0.00  0.00     0.252 S 
ATOM     85  C1  ASG d 306       6.718  36.695  50.111  0.00  0.00     0.283 C 
ATOM     86  N   ASG d 306       5.222  34.846  49.595  0.00  0.00    -0.352 N 
ATOM     87  C2  ASG d 306       5.282  36.274  50.040  0.00  0.00     0.142 C 
ATOM     88  H   ASG d 306       7.947  41.525  50.694  0.00  0.00     0.209 HD
ATOM     89  H   ASG d 306       5.353  34.631  48.643  0.00  0.00     0.163 HD
ATOM     90  O3  BDP d 305       7.977  37.173  53.449  0.00  0.00    -0.390 OA
ATOM     91  C3  BDP d 305       8.691  36.009  53.027  0.00  0.00     0.183 C 
ATOM     92  O2  BDP d 305      10.271  36.282  54.855  0.00  0.00    -0.388 OA
ATOM     93  C1  BDP d 305      10.940  34.930  52.979  0.00  0.00     0.292 C 
ATOM     94  O6B BDP d 305      10.239  35.123  48.930  0.00  0.00    -0.646 OA
ATOM     95  O6A BDP d 305       8.694  33.485  49.167  0.00  0.00    -0.646 OA
ATOM     96  C6  BDP d 305       9.467  34.387  49.573  0.00  0.00     0.206 C 
ATOM     97  O5  BDP d 305      10.826  34.740  51.536  0.00  0.00    -0.340 OA
ATOM     98  O4  BDP d 305       7.378  35.855  51.003  0.00  0.00    -0.348 OA
ATOM     99  C4  BDP d 305       8.669  35.881  51.492  0.00  0.00     0.195 C 
ATOM    100  C2  BDP d 305      10.143  36.161  53.436  0.00  0.00     0.204 C 
ATOM    101  C5  BDP d 305       9.445  34.609  51.079  0.00  0.00     0.257 C 
ATOM    102  H   BDP d 305       8.003  37.235  54.417  0.00  0.00     0.210 HD
ATOM    103  H   BDP d 305       9.772  37.056  55.160  0.00  0.00     0.210 HD
ENDROOT
TORSDOF 35
