REMARK 36 active torsions
REMARK    1  A    between atoms: atom2  and  atom_
REMARK    2  A    between atoms: atom7  and  atom_
REMARK    3  A    between atoms: atom1  and  atom0
REMARK    4  A    between atoms: atom1  and  atom4
REMARK    5  A    between atoms: atom1  and  atom1
REMARK    6  A    between atoms: atom2  and  atom0
REMARK    7  A    between atoms: atom2  and  atom2
REMARK    8  A    between atoms: atom2  and  atom4
REMARK    9  A    between atoms: atom3  and  atom4
REMARK    10  A    between atoms: atom3  and  atom8
REMARK    11  A    between atoms: atom4  and  atom9
REMARK    12  A    between atoms: atom5  and  atom5
REMARK    13  A    between atoms: atom3  and  atom9
REMARK    14  A    between atoms: atom6  and  atom7
REMARK    15  A    between atoms: atom3  and  atom_
REMARK    16  A    between atoms: atom4  and  atom_
REMARK    17  A    between atoms: atom9  and  atom6
REMARK    18  A    between atoms: atom9  and  atom8
REMARK    19  A    between atoms: atom1  and  atom0
REMARK    20  A    between atoms: atom1  and  atom0
REMARK    21  A    between atoms: atom1  and  atom0
REMARK    22  A    between atoms: atom1  and  atom1
REMARK    23  A    between atoms: atom1  and  atom1
REMARK    24  A    between atoms: atom1  and  atom2
REMARK    25  A    between atoms: atom1  and  atom2
REMARK    26  A    between atoms: atom1  and  atom4
REMARK    27  A    between atoms: atom4  and  atom1
REMARK    28  A    between atoms: atom5  and  atom6
REMARK    29  A    between atoms: atom7  and  atom3
REMARK    30  A    between atoms: atom7  and  atom9
REMARK    31  A    between atoms: atom5  and  atom_
REMARK    32  A    between atoms: atom6  and  atom_
REMARK    33  A    between atoms: atom8  and  atom7
REMARK    34  A    between atoms: atom1  and  atom3
REMARK    35  A    between atoms: atom1  and  atom4
REMARK    36  A    between atoms: atom1  and  atom5
ROOT
ATOM      1  O5  IDS d 249      45.218  -0.415 106.486  0.00  0.00    -0.340 OA
ATOM      2  C4  IDS d 249      44.268  -2.294 105.276  0.00  0.00     0.195 C 
ATOM      3  C2  IDS d 249      45.830  -2.667 107.279  0.00  0.00     0.231 C 
ATOM      4  C1  IDS d 249      45.996  -1.131 107.434  0.00  0.00     0.294 C 
ATOM      5  C3  IDS d 249      45.492  -3.052 105.858  0.00  0.00     0.185 C 
ATOM      6  C5  IDS d 249      43.953  -1.038 106.160  0.00  0.00     0.253 C 
ENDROOT
BRANCH   2   7
ATOM      7  O1  SGN d 248      44.726  -1.774 104.082  0.00  0.00    -0.348 OA
BRANCH   7   8
ATOM      8  C1  SGN d 248      44.284  -2.258 102.875  0.00  0.00     0.282 C 
ATOM      9  O5  SGN d 248      43.620  -1.182 102.218  0.00  0.00    -0.349 OA
ATOM     10  C5  SGN d 248      44.482  -0.001 102.078  0.00  0.00     0.181 C 
ATOM     11  C4  SGN d 248      45.738  -0.379 101.215  0.00  0.00     0.186 C 
ATOM     12  C3  SGN d 248      46.481  -1.511 101.922  0.00  0.00     0.173 C 
ATOM     13  C2  SGN d 248      45.541  -2.719 102.062  0.00  0.00     0.160 C 
ATOM     77  O3  SGN d 248      47.619  -1.883 101.158  0.00  0.00    -0.391 OA
ATOM     78  H   SGN d 248      47.336  -2.180 100.279  0.00  0.00     0.210 HD
ATOM     79  N   SGN d 248      46.253  -3.812 102.783  0.00  0.00    -0.189 NA
ATOM     80  H   SGN d 248      46.036  -3.691 103.772  0.00  0.00     0.143 HD
BRANCH  10  14
ATOM     14  C6  SGN d 248      43.629   1.127 101.476  0.00  0.00     0.227 C 
BRANCH  14  15
ATOM     15  O6  SGN d 248      42.978   0.655 100.335  0.00  0.00    -0.254 OA
ATOM     16  S2  SGN d 248      41.964   1.437  99.463  0.00  0.00     0.251 S 
ATOM     17  O4S SGN d 248      42.453   1.393  98.097  0.00  0.00    -0.572 OA
ATOM     18  O5S SGN d 248      40.719   0.715  99.643  0.00  0.00    -0.572 OA
ATOM     19  O6S SGN d 248      41.921   2.781 100.008  0.00  0.00    -0.572 OA
ENDBRANCH  14  15
ENDBRANCH  10  14
BRANCH  11  20
ATOM     20  O1  IDS d 247      46.627   0.727 101.122  0.00  0.00    -0.348 OA
BRANCH  20  21
ATOM     21  C1  IDS d 247      46.853   1.271  99.871  0.00  0.00     0.294 C 
ATOM     22  C2  IDS d 247      47.685   2.546 100.109  0.00  0.00     0.231 C 
ATOM     23  C3  IDS d 247      48.514   2.902  98.890  0.00  0.00     0.185 C 
ATOM     24  C4  IDS d 247      49.438   1.757  98.404  0.00  0.00     0.195 C 
ATOM     25  C5  IDS d 247      48.961   0.382  99.027  0.00  0.00     0.253 C 
ATOM     26  O5  IDS d 247      47.511   0.344  99.003  0.00  0.00    -0.340 OA
ATOM     32  O3  IDS d 247      49.298   4.056  99.176  0.00  0.00    -0.390 OA
ATOM     33  H   IDS d 247      49.914   3.858  99.899  0.00  0.00     0.210 HD
ATOM     73  C6  IDS d 247      49.506  -0.856  98.291  0.00  0.00     0.172 C 
ATOM     74  O62 IDS d 247      48.761  -1.626  97.714  0.00  0.00    -0.648 OA
BRANCH  22  27
ATOM     27  O2  IDS d 247      46.804   3.658 100.375  0.00  0.00    -0.244 OA
ATOM     28  S   IDS d 247      47.139   5.250 100.370  0.00  0.00     0.252 S 
ATOM     29  O1S IDS d 247      46.766   5.692 101.701  0.00  0.00    -0.572 OA
ATOM     30  O3S IDS d 247      46.310   5.859  99.326  0.00  0.00    -0.572 OA
ATOM     31  O2S IDS d 247      48.558   5.398 100.128  0.00  0.00    -0.572 OA
ENDBRANCH  22  27
BRANCH  24  34
ATOM     34  O1  SGN d 246      49.228   1.641  96.999  0.00  0.00    -0.348 OA
BRANCH  34  35
ATOM     35  C1  SGN d 246      50.033   2.347  96.070  0.00  0.00     0.282 C 
ATOM     36  C2  SGN d 246      49.218   3.563  95.447  0.00  0.00     0.160 C 
ATOM     37  C3  SGN d 246      47.969   3.031  94.730  0.00  0.00     0.173 C 
ATOM     38  C4  SGN d 246      48.420   2.099  93.639  0.00  0.00     0.186 C 
ATOM     39  C5  SGN d 246      49.239   0.905  94.293  0.00  0.00     0.181 C 
ATOM     40  O5  SGN d 246      50.397   1.432  95.038  0.00  0.00    -0.349 OA
ATOM     41  N   SGN d 246      48.827   4.500  96.500  0.00  0.00    -0.189 NA
ATOM     42  H   SGN d 246      47.971   4.133  96.916  0.00  0.00     0.143 HD
ATOM     47  O3  SGN d 246      47.247   4.098  94.155  0.00  0.00    -0.391 OA
ATOM     48  H   SGN d 246      46.953   4.703  94.854  0.00  0.00     0.210 HD
BRANCH  38  49
ATOM     49  O1  IDS d 245      47.250   1.641  92.956  0.00  0.00    -0.348 OA
BRANCH  49  50
ATOM     50  C1  IDS d 245      47.088   2.145  91.654  0.00  0.00     0.294 C 
ATOM     51  O5  IDS d 245      46.058   3.143  91.546  0.00  0.00    -0.343 OA
ATOM     52  C5  IDS d 245      45.413   3.344  90.187  0.00  0.00     0.224 C 
ATOM     53  C4  IDS d 245      46.279   2.738  88.968  0.00  0.00     0.077 C 
ATOM     54  C3  IDS d 245      47.149   1.502  89.334  0.00  0.00     0.156 C 
ATOM     55  C2  IDS d 245      46.831   0.999  90.711  0.00  0.00     0.228 C 
ATOM     56  C6  IDS d 245      45.081   4.850  89.985  0.00  0.00     0.170 C 
ATOM     57  O62 IDS d 245      44.086   5.361  90.486  0.00  0.00    -0.648 OA
ATOM     60  O3  IDS d 245      46.908   0.481  88.396  0.00  0.00    -0.393 OA
ATOM     61  H   IDS d 245      45.971   0.230  88.425  0.00  0.00     0.210 HD
BRANCH  55  62
ATOM     62  O2  IDS d 245      47.712  -0.083  91.003  0.00  0.00    -0.244 OA
ATOM     63  S   IDS d 245      47.494  -1.638  90.879  0.00  0.00     0.252 S 
ATOM     64  O2S IDS d 245      46.956  -2.113  92.143  0.00  0.00    -0.572 OA
ATOM     65  O3S IDS d 245      46.591  -1.824  89.765  0.00  0.00    -0.572 OA
ATOM     66  O1S IDS d 245      48.827  -2.162  90.618  0.00  0.00    -0.572 OA
ENDBRANCH  55  62
BRANCH  56  58
ATOM     58  O61 IDS d 245      45.804   5.564  89.297  0.00  0.00    -0.774 OA
ENDBRANCH  56  58
ENDBRANCH  49  50
ENDBRANCH  38  49
BRANCH  39  67
ATOM     67  C6  SGN d 246      49.791  -0.126  93.281  0.00  0.00     0.227 C 
BRANCH  67  68
ATOM     68  O6  SGN d 246      50.763   0.483  92.475  0.00  0.00    -0.254 OA
ATOM     69  S2  SGN d 246      52.282   0.221  92.495  0.00  0.00     0.251 S 
ATOM     70  O5S SGN d 246      52.755   0.801  91.263  0.00  0.00    -0.572 OA
ATOM     71  O6S SGN d 246      52.785   0.902  93.655  0.00  0.00    -0.572 OA
ATOM     72  O4S SGN d 246      52.458  -1.205  92.556  0.00  0.00    -0.572 OA
ENDBRANCH  67  68
ENDBRANCH  39  67
BRANCH  41  43
ATOM     43  S1  SGN d 246      48.539   6.077  96.137  0.00  0.00     0.183 S 
ATOM     44  O1S SGN d 246      48.477   6.187  94.693  0.00  0.00    -0.582 OA
ATOM     45  O2S SGN d 246      47.297   6.444  96.790  0.00  0.00    -0.582 OA
ATOM     46  O3S SGN d 246      49.677   6.782  96.689  0.00  0.00    -0.582 OA
ENDBRANCH  41  43
ENDBRANCH  34  35
ENDBRANCH  24  34
BRANCH  73  75
ATOM     75  O61 IDS d 247      50.702  -1.090  98.255  0.00  0.00    -0.774 OA
ENDBRANCH  73  75
ENDBRANCH  20  21
ENDBRANCH  11  20
BRANCH  79  81
ATOM     81  S1  SGN d 248      45.978  -5.406 102.439  0.00  0.00     0.183 S 
ATOM     82  O1S SGN d 248      46.788  -5.766 101.294  0.00  0.00    -0.582 OA
ATOM     83  O3S SGN d 248      44.565  -5.514 102.135  0.00  0.00    -0.582 OA
ATOM     84  O2S SGN d 248      46.333  -6.124 103.658  0.00  0.00    -0.582 OA
ENDBRANCH  79  81
ENDBRANCH   7   8
ENDBRANCH   2   7
BRANCH   3  91
ATOM     91  O2  IDS d 249      47.056  -3.345 107.622  0.00  0.00    -0.244 OA
ATOM     92  S   IDS d 249      48.465  -3.301 106.826  0.00  0.00     0.252 S 
ATOM     93  O3S IDS d 249      49.455  -3.844 107.731  0.00  0.00    -0.572 OA
ATOM     94  O2S IDS d 249      48.724  -1.928 106.465  0.00  0.00    -0.572 OA
ATOM     95  O1S IDS d 249      48.254  -4.137 105.653  0.00  0.00    -0.572 OA
ENDBRANCH   3  91
BRANCH   4  96
ATOM     96  O1  IDS d 249      45.567  -0.861 108.716  0.00  0.00    -0.348 OA
BRANCH  96  97
ATOM     97  C4  SGN d 250      45.916   0.372 109.319  0.00  0.00     0.186 C 
ATOM     98  C5  SGN d 250      47.074   0.136 110.348  0.00  0.00     0.181 C 
ATOM     99  O5  SGN d 250      47.356   1.403 111.055  0.00  0.00    -0.349 OA
ATOM    100  C1  SGN d 250      46.199   1.839 111.789  0.00  0.00     0.282 C 
ATOM    101  C2  SGN d 250      45.041   2.229 110.788  0.00  0.00     0.160 C 
ATOM    102  C3  SGN d 250      44.670   0.906 110.059  0.00  0.00     0.173 C 
ATOM    150  N   SGN d 250      43.841   2.715 111.540  0.00  0.00    -0.189 NA
ATOM    151  H   SGN d 250      43.872   2.258 112.451  0.00  0.00     0.143 HD
ATOM    156  O3  SGN d 250      43.632   1.146 109.120  0.00  0.00    -0.391 OA
ATOM    157  H   SGN d 250      42.848   1.482 109.583  0.00  0.00     0.210 HD
BRANCH  98  103
ATOM    103  C6  SGN d 250      48.367  -0.360 109.689  0.00  0.00     0.227 C 
BRANCH  103  104
ATOM    104  O6  SGN d 250      49.362   0.610 109.827  0.00  0.00    -0.254 OA
ATOM    105  S2  SGN d 250      50.602   0.798 108.895  0.00  0.00     0.251 S 
ATOM    106  O6S SGN d 250      51.681   0.041 109.511  0.00  0.00    -0.572 OA
ATOM    107  O5S SGN d 250      50.854   2.215 108.911  0.00  0.00    -0.572 OA
ATOM    108  O4S SGN d 250      50.227   0.310 107.576  0.00  0.00    -0.572 OA
ENDBRANCH  103  104
ENDBRANCH  98  103
BRANCH  100  109
ATOM    109  O1  SGN d 250      45.763   0.668 112.453  0.00  0.00    -0.348 OA
BRANCH  109  110
ATOM    110  C4  IDS d 251      45.265   0.629 113.731  0.00  0.00     0.195 C 
ATOM    111  C3  IDS d 251      43.730   0.497 113.581  0.00  0.00     0.185 C 
ATOM    112  C2  IDS d 251      43.090  -0.608 114.434  0.00  0.00     0.231 C 
ATOM    113  C1  IDS d 251      43.752  -1.994 114.180  0.00  0.00     0.294 C 
ATOM    114  O5  IDS d 251      45.080  -1.808 113.667  0.00  0.00    -0.340 OA
ATOM    115  C5  IDS d 251      45.836  -0.709 114.292  0.00  0.00     0.253 C 
ATOM    116  O3  IDS d 251      43.123   1.737 113.891  0.00  0.00    -0.390 OA
ATOM    117  H   IDS d 251      43.298   1.960 114.819  0.00  0.00     0.210 HD
ATOM    146  C6  IDS d 251      47.367  -0.900 114.018  0.00  0.00     0.172 C 
ATOM    147  O62 IDS d 251      48.213  -0.288 114.649  0.00  0.00    -0.648 OA
BRANCH  112  118
ATOM    118  O2  IDS d 251      41.705  -0.643 114.082  0.00  0.00    -0.244 OA
ATOM    119  S   IDS d 251      40.965  -1.519 112.940  0.00  0.00     0.252 S 
ATOM    120  O1S IDS d 251      41.297  -0.860 111.685  0.00  0.00    -0.572 OA
ATOM    121  O2S IDS d 251      41.480  -2.876 112.998  0.00  0.00    -0.572 OA
ATOM    122  O3S IDS d 251      39.560  -1.432 113.265  0.00  0.00    -0.572 OA
ENDBRANCH  112  118
BRANCH  113  123
ATOM    123  O1  IDS d 251      43.741  -2.672 115.449  0.00  0.00    -0.348 OA
BRANCH  123  124
ATOM    124  C4  SGN d 252      44.256  -4.048 115.618  0.00  0.00     0.186 C 
ATOM    125  C3  SGN d 252      45.826  -4.053 115.673  0.00  0.00     0.173 C 
ATOM    126  C2  SGN d 252      46.304  -5.483 115.903  0.00  0.00     0.160 C 
ATOM    127  C1  SGN d 252      45.739  -5.959 117.263  0.00  0.00     0.278 C 
ATOM    128  O5  SGN d 252      44.284  -5.902 117.248  0.00  0.00    -0.350 OA
ATOM    129  C5  SGN d 252      43.739  -4.591 116.990  0.00  0.00     0.181 C 
ATOM    130  O3  SGN d 252      46.338  -3.631 114.452  0.00  0.00    -0.391 OA
ATOM    131  H   SGN d 252      47.307  -3.635 114.489  0.00  0.00     0.210 HD
ATOM    132  N   SGN d 252      47.793  -5.542 115.939  0.00  0.00    -0.189 NA
ATOM    133  H   SGN d 252      48.070  -5.518 116.920  0.00  0.00     0.143 HD
ATOM    138  O1  SGN d 252      46.271  -5.117 118.310  0.00  0.00    -0.369 OA
ATOM    139  H   SGN d 252      46.009  -4.197 118.149  0.00  0.00     0.212 HD
BRANCH  129  140
ATOM    140  C6  SGN d 252      42.213  -4.719 117.094  0.00  0.00     0.227 C 
BRANCH  140  141
ATOM    141  O6  SGN d 252      41.676  -4.897 115.801  0.00  0.00    -0.254 OA
ATOM    142  S2  SGN d 252      40.150  -4.903 115.377  0.00  0.00     0.251 S 
ATOM    143  O4S SGN d 252      39.808  -3.552 114.954  0.00  0.00    -0.572 OA
ATOM    144  O6S SGN d 252      39.401  -5.342 116.551  0.00  0.00    -0.572 OA
ATOM    145  O5S SGN d 252      40.092  -5.871 114.286  0.00  0.00    -0.572 OA
ENDBRANCH  140  141
ENDBRANCH  129  140
BRANCH  132  134
ATOM    134  S1  SGN d 252      48.560  -6.845 115.246  0.00  0.00     0.183 S 
ATOM    135  O1S SGN d 252      47.869  -8.042 115.691  0.00  0.00    -0.582 OA
ATOM    136  O2S SGN d 252      48.480  -6.644 113.817  0.00  0.00    -0.582 OA
ATOM    137  O3S SGN d 252      49.937  -6.796 115.733  0.00  0.00    -0.582 OA
ENDBRANCH  132  134
ENDBRANCH  123  124
ENDBRANCH  113  123
BRANCH  146  148
ATOM    148  O61 IDS d 251      47.759  -1.673 113.138  0.00  0.00    -0.774 OA
ENDBRANCH  146  148
ENDBRANCH  109  110
ENDBRANCH  100  109
BRANCH  150  152
ATOM    152  S1  SGN d 250      43.577   4.334 111.839  0.00  0.00     0.183 S 
ATOM    153  O3S SGN d 250      44.549   4.667 112.872  0.00  0.00    -0.582 OA
ATOM    154  O1S SGN d 250      43.825   5.082 110.617  0.00  0.00    -0.582 OA
ATOM    155  O2S SGN d 250      42.190   4.431 112.321  0.00  0.00    -0.582 OA
ENDBRANCH  150  152
ENDBRANCH  96  97
ENDBRANCH   4  96
BRANCH   5  85
ATOM     85  O3  IDS d 249      45.280  -4.456 105.803  0.00  0.00    -0.390 OA
ATOM     86  H   IDS d 249      45.062  -4.715 104.894  0.00  0.00     0.210 HD
ENDBRANCH   5  85
BRANCH   6  87
ATOM     87  C6  IDS d 249      43.037  -0.005 105.472  0.00  0.00     0.172 C 
ATOM     88  O62 IDS d 249      43.348   0.525 104.420  0.00  0.00    -0.648 OA
BRANCH  87  89
ATOM     89  O61 IDS d 249      41.964   0.316 105.983  0.00  0.00    -0.774 OA
ENDBRANCH  87  89
ENDBRANCH   6  87
TORSDOF 36
