REMARK  0 active torsions:
REMARK  status: ('A' for Active; 'I' for Inactive)
REMARK       I    between atoms: O30_1  and  S20_13 
REMARK       I    between atoms: C19_2  and  C27_5 
REMARK       I    between atoms: O29_3  and  S20_13 
REMARK       I    between atoms: O15_4  and  C10_19 
REMARK       I    between atoms: C27_5  and  O35_25 
REMARK       I    between atoms: C8_6  and  N14_18 
REMARK       I    between atoms: C2_7  and  C6_24 
REMARK       I    between atoms: S26_8  and  O18_30 
REMARK       I    between atoms: S26_8  and  O33_35 
REMARK       I    between atoms: O28_9  and  S20_13 
REMARK       I    between atoms: S20_13  and  N14_18 
REMARK       I    between atoms: S16_20  and  O11_23 
REMARK       I    between atoms: S16_20  and  O23_27 
REMARK       I    between atoms: C7_21  and  O3_34 
REMARK       I    between atoms: O25_22  and  C17_32 
REMARK       I    between atoms: O11_23  and  C6_24 
REMARK       I    between atoms: O9_26  and  C4_28 
REMARK       I    between atoms: C1_29  and  O3_34 
REMARK       I    between atoms: O18_30  and  C12_33 
ROOT
ATOM      1  O30 H1S d  69       2.808   1.967   8.382  0.00  0.00    -0.296 OA
ATOM      2  C19 H1S d  69       4.922  -4.405  11.046  0.00  0.00     0.144 C 
ATOM      3  O29 H1S d  69       3.094  -0.394   8.446  0.00  0.00    -0.296 OA
ATOM      4  O15 H1S d  69       4.531   3.398  12.506  0.00  0.00    -0.369 OA
ATOM      5  C27 H1S d  69       4.381  -5.297  12.173  0.00  0.00     0.200 C 
ATOM      6  C8  H1S d  69       4.564   1.464  10.757  0.00  0.00     0.157 C 
ATOM      7  C2  H1S d  69       4.886  -0.511  12.699  0.00  0.00     0.181 C 
ATOM      8  S26 H1S d  69       4.875  -4.035   6.470  0.00  0.00     0.241 S 
ATOM      9  O28 H1S d  69       1.088   0.643   9.283  0.00  0.00    -0.296 OA
ATOM     10  O31 H1S d  69       5.556  -3.015   5.608  0.00  0.00    -0.579 OA
ATOM     11  O22 H1S d  69       6.216   0.169  16.068  0.00  0.00    -0.579 OA
ATOM     12  O5  H1S d  69       4.652   0.871  13.202  0.00  0.00    -0.350 OA
ATOM     13  S20 H1S d  69       2.557   0.780   9.200  0.00  0.00     0.156 S 
ATOM     14  C24 H1S d  69       6.115  -4.761  10.366  0.00  0.00     0.051 C 
ATOM     15  O32 H1S d  69       5.696  -5.288   6.443  0.00  0.00    -0.579 OA
ATOM     16  O13 H1S d  69       4.193  -3.274  10.733  0.00  0.00    -0.311 OA
ATOM     17  O34 H1S d  69       5.016  -6.341  12.445  0.00  0.00    -0.645 OA
ATOM     18  N14 H1S d  69       3.227   0.826  10.697  0.00  0.00    -0.210 NA
ATOM     19  C10 H1S d  69       4.938   1.949  12.197  0.00  0.00     0.278 C 
ATOM     20  S16 H1S d  69       4.843  -0.462  16.248  0.00  0.00     0.240 S 
ATOM     21  C7  H1S d  69       4.888  -2.284   9.902  0.00  0.00     0.300 C 
ATOM     22  O25 H1S d  69       7.848  -3.147   9.549  0.00  0.00    -0.389 OA
ATOM     23  O11 H1S d  69       4.491  -1.218  15.031  0.00  0.00    -0.261 OA
ATOM     24  C6  H1S d  69       5.357  -1.412  13.851  0.00  0.00     0.226 C 
ATOM     25  O35 H1S d  69       3.329  -4.931  12.761  0.00  0.00    -0.771 OA
ATOM     26  O9  H1S d  69       6.845   1.022   9.812  0.00  0.00    -0.391 OA
ATOM     27  O23 H1S d  69       4.806  -1.365  17.455  0.00  0.00    -0.274 OA
ATOM     28  C4  H1S d  69       5.601   0.436  10.315  0.00  0.00     0.173 C 
ATOM     29  C1  H1S d  69       5.861  -0.551  11.468  0.00  0.00     0.186 C 
ATOM     30  O18 H1S d  69       4.653  -3.561   7.829  0.00  0.00    -0.250 OA
ATOM     31  O21 H1S d  69       3.866   0.646  16.509  0.00  0.00    -0.579 OA
ATOM     32  C17 H1S d  69       6.676  -3.889   9.195  0.00  0.00     0.179 C 
ATOM     33  C12 H1S d  69       5.605  -2.890   8.683  0.00  0.00     0.232 C 
ATOM     34  O3  H1S d  69       5.934  -1.811  10.793  0.00  0.00    -0.348 OA
ATOM     35  O33 H1S d  69       3.488  -4.216   6.029  0.00  0.00    -0.274 OA
ATOM     36  H   H1S d  69       2.381   1.860   7.518  0.00  0.00     0.231 HD
ATOM     37  H   H1S d  69       2.697  -0.419   7.561  0.00  0.00     0.231 HD
ATOM     38  H   H1S d  69       4.782   3.970  11.764  0.00  0.00     0.212 HD
ATOM     39  H   H1S d  69       0.715   0.618   8.388  0.00  0.00     0.231 HD
ATOM     40  H   H1S d  69       2.599   1.345  11.310  0.00  0.00     0.140 HD
ATOM     41  H   H1S d  69       8.531  -3.756   9.872  0.00  0.00     0.210 HD
ATOM     42  H   H1S d  69       2.903  -4.136  12.507  0.00  0.00     0.167 HD
ATOM     43  H   H1S d  69       6.644   1.637   9.089  0.00  0.00     0.210 HD
ATOM     44  H   H1S d  69       5.427  -2.100  17.328  0.00  0.00     0.234 HD
ATOM     45  H   H1S d  69       3.021  -3.367   6.073  0.00  0.00     0.234 HD
ENDROOT
TORSDOF 19
