REMARK  0 active torsions:
REMARK  status: ('A' for Active; 'I' for Inactive)
REMARK       I    between atoms: C2_1  and  O2_78 
REMARK       I    between atoms: C1_2  and  O1_15 
REMARK       I    between atoms: C1_3  and  O4_50 
REMARK       I    between atoms: O4_5  and  C4_58 
REMARK       I    between atoms: O4_5  and  C1_27 
REMARK       I    between atoms: C2_6  and  N_39 
REMARK       I    between atoms: O3_8  and  C3_66 
REMARK       I    between atoms: S1_9  and  N_39 
REMARK       I    between atoms: C6_10  and  C5_52 
REMARK       I    between atoms: C6_10  and  O62_42 
REMARK       I    between atoms: O3_11  and  C3_31 
REMARK       I    between atoms: C2_12  and  N_73 
REMARK       I    between atoms: O3_16  and  C3_81 
REMARK       I    between atoms: C2_19  and  O2_24 
REMARK       I    between atoms: C2_21  and  O2_44 
REMARK       I    between atoms: O4_22  and  C4_68 
REMARK       I    between atoms: S2_23  and  O6_65 
REMARK       I    between atoms: O2_24  and  S_54 
REMARK       I    between atoms: C1_28  and  O4_60 
REMARK       I    between atoms: C5_29  and  C6_38 
REMARK       I    between atoms: C5_30  and  C6_33 
REMARK       I    between atoms: C3_32  and  O3_74 
REMARK       I    between atoms: C6_33  and  O62_51 
REMARK       I    between atoms: S1_34  and  N_73 
REMARK       I    between atoms: C6_38  and  O61_45 
REMARK       I    between atoms: C5_41  and  C6_46 
REMARK       I    between atoms: S_43  and  O2_44 
REMARK       I    between atoms: C6_46  and  O6_72 
REMARK       I    between atoms: O4_50  and  C4_71 
REMARK       I    between atoms: C1_56  and  O4_64 
REMARK       I    between atoms: O3_59  and  C3_70 
REMARK       I    between atoms: O4_60  and  C4_83 
REMARK       I    between atoms: C4_61  and  O4_64 
REMARK       I    between atoms: S2_63  and  O6_72 
REMARK       I    between atoms: O6_65  and  C6_67 
REMARK       I    between atoms: C6_67  and  C5_75 
REMARK       I    between atoms: S_76  and  O2_78 
ROOT
ATOM      1  C2  IDS d 504     -16.845  51.540 175.929  0.00  0.00     0.231 C 
ATOM      2  O3  IDS d 504     -18.723  50.079 175.335  0.00  0.00    -0.390 OA
ATOM      3  O62 IDS d 504     -16.914  49.358 171.127  0.00  0.00    -0.648 OA
ATOM      4  O5  IDS d 504     -16.155  51.761 173.603  0.00  0.00    -0.340 OA
ATOM      5  O3S IDS d 504     -16.021  53.062 178.192  0.00  0.00    -0.572 OA
ATOM      6  C5  IDS d 504     -16.766  50.548 173.226  0.00  0.00     0.253 C 
ATOM      7  C6  IDS d 504     -16.236  50.081 171.860  0.00  0.00     0.172 C 
ATOM      8  O61 IDS d 504     -15.119  50.402 171.475  0.00  0.00    -0.774 OA
ATOM      9  O2S IDS d 504     -13.779  52.230 177.979  0.00  0.00    -0.572 OA
ATOM     10  C1  IDS d 504     -16.791  52.425 174.700  0.00  0.00     0.294 C 
ATOM     11  O4  IDS d 504     -15.271  49.282 174.642  0.00  0.00    -0.348 OA
ATOM     12  C3  IDS d 504     -17.325  50.075 175.596  0.00  0.00     0.185 C 
ATOM     13  S   IDS d 504     -15.184  51.946 177.955  0.00  0.00     0.252 S 
ATOM     14  O2  IDS d 504     -15.548  51.517 176.522  0.00  0.00    -0.244 OA
ATOM     15  O1S IDS d 504     -15.510  50.852 178.795  0.00  0.00    -0.572 OA
ATOM     16  C4  IDS d 504     -16.640  49.526 174.354  0.00  0.00     0.195 C 
ATOM     17  H   IDS d 504     -19.195  50.425 176.109  0.00  0.00     0.210 HD
ATOM     18  H   IDS d 504     -14.579  50.951 172.009  0.00  0.00     0.167 HD
ATOM     19  C1  IDS d 502     -23.728  56.123 175.927  0.00  0.00     0.291 C 
ATOM     20  O4  IDS d 502     -21.060  56.015 173.670  0.00  0.00    -0.348 OA
ATOM     21  C6  IDS d 502     -20.453  57.848 175.914  0.00  0.00     0.172 C 
ATOM     22  O3  IDS d 502     -24.117  57.962 173.583  0.00  0.00    -0.390 OA
ATOM     23  O1  IDS d 502     -24.575  57.199 176.232  0.00  0.00    -0.368 OA
ATOM     24  C2  IDS d 502     -23.949  55.752 174.464  0.00  0.00     0.231 C 
ATOM     25  O2  IDS d 502     -23.304  54.530 174.223  0.00  0.00    -0.244 OA
ATOM     26  O3S IDS d 502     -24.597  52.674 173.479  0.00  0.00    -0.572 OA
ATOM     27  C3  IDS d 502     -23.336  56.785 173.514  0.00  0.00     0.185 C 
ATOM     28  O62 IDS d 502     -19.893  58.847 175.506  0.00  0.00    -0.774 OA
ATOM     29  O2S IDS d 502     -22.278  52.866 172.828  0.00  0.00    -0.572 OA
ATOM     30  C5  IDS d 502     -21.837  57.464 175.410  0.00  0.00     0.253 C 
ATOM     31  O61 IDS d 502     -19.872  57.171 176.727  0.00  0.00    -0.648 OA
ATOM     32  S   IDS d 502     -23.538  53.542 173.033  0.00  0.00     0.252 S 
ATOM     33  C4  IDS d 502     -21.889  57.120 173.923  0.00  0.00     0.195 C 
ATOM     34  O5  IDS d 502     -22.376  56.410 176.183  0.00  0.00    -0.340 OA
ATOM     35  O1S IDS d 502     -23.927  54.329 171.896  0.00  0.00    -0.572 OA
ATOM     36  H   IDS d 502     -25.030  57.760 173.327  0.00  0.00     0.210 HD
ATOM     37  H   IDS d 502     -24.360  57.952 175.659  0.00  0.00     0.212 HD
ATOM     38  H   IDS d 502     -20.315  59.396 174.874  0.00  0.00     0.167 HD
ATOM     39  C1  IDS d 506     -10.548  48.756 172.556  0.00  0.00     0.294 C 
ATOM     40  O1S IDS d 506      -8.616  49.185 168.505  0.00  0.00    -0.572 OA
ATOM     41  O3  IDS d 506      -8.835  51.324 171.732  0.00  0.00    -0.390 OA
ATOM     42  C2  IDS d 506      -9.989  49.261 171.218  0.00  0.00     0.231 C 
ATOM     43  O4  IDS d 506      -7.066  48.210 171.774  0.00  0.00    -0.390 OA
ATOM     44  C5  IDS d 506      -8.475  48.845 173.618  0.00  0.00     0.253 C 
ATOM     45  C6  IDS d 506      -7.691  48.138 174.708  0.00  0.00     0.172 C 
ATOM     46  S   IDS d 506      -9.644  48.220 168.747  0.00  0.00     0.252 S 
ATOM     47  O2  IDS d 506      -9.807  48.178 170.327  0.00  0.00    -0.244 OA
ATOM     48  O62 IDS d 506      -6.593  48.525 175.069  0.00  0.00    -0.774 OA
ATOM     49  O2S IDS d 506      -9.241  46.915 168.305  0.00  0.00    -0.572 OA
ATOM     50  O5  IDS d 506      -9.535  48.041 173.217  0.00  0.00    -0.340 OA
ATOM     51  C4  IDS d 506      -7.679  49.315 172.396  0.00  0.00     0.189 C 
ATOM     52  O61 IDS d 506      -8.165  47.157 175.264  0.00  0.00    -0.648 OA
ATOM     53  O3S IDS d 506     -10.936  48.623 168.235  0.00  0.00    -0.572 OA
ATOM     54  C3  IDS d 506      -8.612  49.968 171.354  0.00  0.00     0.185 C 
ATOM     55  H   IDS d 506      -9.421  51.748 171.085  0.00  0.00     0.210 HD
ATOM     56  H   IDS d 506      -6.470  47.774 172.403  0.00  0.00     0.210 HD
ATOM     57  H   IDS d 506      -6.203  49.274 174.662  0.00  0.00     0.167 HD
ATOM     58  O6S SGN d 505     -14.505  45.325 169.295  0.00  0.00    -0.572 OA
ATOM     59  C2  SGN d 505     -13.629  47.726 175.484  0.00  0.00     0.160 C 
ATOM     60  O3S SGN d 505     -14.588  48.135 179.186  0.00  0.00    -0.582 OA
ATOM     61  S1  SGN d 505     -14.423  47.322 178.034  0.00  0.00     0.183 S 
ATOM     62  O4S SGN d 505     -12.813  44.032 170.436  0.00  0.00    -0.572 OA
ATOM     63  C1  SGN d 505     -14.952  47.923 174.770  0.00  0.00     0.282 C 
ATOM     64  C3  SGN d 505     -12.463  48.264 174.632  0.00  0.00     0.173 C 
ATOM     65  O5S SGN d 505     -15.133  43.910 171.142  0.00  0.00    -0.572 OA
ATOM     66  N   SGN d 505     -13.724  48.284 176.853  0.00  0.00    -0.189 NA
ATOM     67  O1S SGN d 505     -15.677  46.825 177.508  0.00  0.00    -0.582 OA
ATOM     68  C5  SGN d 505     -13.882  47.808 172.692  0.00  0.00     0.181 C 
ATOM     69  C6  SGN d 505     -14.085  47.183 171.350  0.00  0.00     0.227 C 
ATOM     70  O4  SGN d 505     -11.597  47.885 172.304  0.00  0.00    -0.348 OA
ATOM     71  O2S SGN d 505     -13.466  46.266 178.268  0.00  0.00    -0.582 OA
ATOM     72  S2  SGN d 505     -14.088  44.704 170.545  0.00  0.00     0.251 S 
ATOM     73  C4  SGN d 505     -12.543  47.499 173.279  0.00  0.00     0.186 C 
ATOM     74  O6  SGN d 505     -13.848  45.830 171.540  0.00  0.00    -0.254 OA
ATOM     75  O3  SGN d 505     -11.243  47.970 175.300  0.00  0.00    -0.391 OA
ATOM     76  O5  SGN d 505     -14.897  47.314 173.511  0.00  0.00    -0.349 OA
ATOM     77  H   SGN d 505     -14.271  49.143 176.796  0.00  0.00     0.143 HD
ATOM     78  H   SGN d 505     -11.179  47.014 175.450  0.00  0.00     0.210 HD
ATOM     79  C2  SGN d 503     -19.410  55.333 172.035  0.00  0.00     0.160 C 
ATOM     80  O5  SGN d 503     -18.811  56.360 174.124  0.00  0.00    -0.349 OA
ATOM     81  S2  SGN d 503     -15.425  56.849 175.873  0.00  0.00     0.251 S 
ATOM     82  C1  SGN d 503     -19.806  56.333 173.131  0.00  0.00     0.282 C 
ATOM     83  S1  SGN d 503     -20.273  56.404 169.787  0.00  0.00     0.183 S 
ATOM     84  O4S SGN d 503     -15.407  56.640 177.281  0.00  0.00    -0.572 OA
ATOM     85  O6S SGN d 503     -15.969  58.117 175.578  0.00  0.00    -0.572 OA
ATOM     86  O1S SGN d 503     -20.554  57.695 170.386  0.00  0.00    -0.582 OA
ATOM     87  O3  SGN d 503     -18.616  53.107 171.608  0.00  0.00    -0.391 OA
ATOM     88  C4  SGN d 503     -18.163  54.061 173.744  0.00  0.00     0.186 C 
ATOM     89  O4  SGN d 503     -18.093  52.835 174.396  0.00  0.00    -0.348 OA
ATOM     90  O6  SGN d 503     -16.440  55.857 175.246  0.00  0.00    -0.254 OA
ATOM     91  C6  SGN d 503     -17.635  55.413 175.851  0.00  0.00     0.227 C 
ATOM     92  C3  SGN d 503     -19.171  53.946 172.603  0.00  0.00     0.173 C 
ATOM     93  N   SGN d 503     -20.411  55.309 170.983  0.00  0.00    -0.189 NA
ATOM     94  C5  SGN d 503     -18.622  55.130 174.751  0.00  0.00     0.181 C 
ATOM     95  O5S SGN d 503     -14.127  56.575 175.264  0.00  0.00    -0.572 OA
ATOM     96  O2S SGN d 503     -18.913  56.330 169.255  0.00  0.00    -0.582 OA
ATOM     97  O3S SGN d 503     -21.292  55.997 168.846  0.00  0.00    -0.582 OA
ATOM     98  H   SGN d 503     -19.242  53.020 170.872  0.00  0.00     0.210 HD
ATOM     99  H   SGN d 503     -21.320  55.451 171.423  0.00  0.00     0.143 HD
ENDROOT
TORSDOF 37
