REMARK  0 active torsions:
REMARK  status: ('A' for Active; 'I' for Inactive)
REMARK       I    between atoms: O2_3  and  C2_18 
REMARK       I    between atoms: C2_5  and  N_29 
REMARK       I    between atoms: C6_6  and  C5_9 
REMARK       I    between atoms: C6_6  and  O6_27 
REMARK       I    between atoms: O3_7  and  C3_8 
REMARK       I    between atoms: C5_10  and  C6_26 
REMARK       I    between atoms: C1_12  and  O1_17 
REMARK       I    between atoms: C4_14  and  O4_20 
REMARK       I    between atoms: C1_15  and  O3_21 
REMARK       I    between atoms: O4_20  and  S_22 
REMARK       I    between atoms: O3_21  and  C3_23 
REMARK       I    between atoms: C6_26  and  O6A_30 
REMARK       I    between atoms: C7_28  and  N_29 
ROOT
ATOM      1  O3S NGK d 526      36.392  11.174  30.670  0.00  0.00    -0.572 OA
ATOM      2  O2S NGK d 526      37.901  12.282  29.093  0.00  0.00    -0.572 OA
ATOM      3  O1S NGK d 526      35.675  13.265  29.653  0.00  0.00    -0.572 OA
ATOM      4  C2  NGK d 526      35.427   8.900  26.786  0.00  0.00     0.171 C 
ATOM      5  C6  NGK d 526      33.401  12.668  27.516  0.00  0.00     0.199 C 
ATOM      6  C5  NGK d 526      33.616  11.150  27.315  0.00  0.00     0.181 C 
ATOM      7  O7  NGK d 526      37.871   7.546  27.182  0.00  0.00    -0.274 OA
ATOM      8  C1  NGK d 526      34.566   9.559  25.703  0.00  0.00     0.282 C 
ATOM      9  C4  NGK d 526      34.470  10.501  28.407  0.00  0.00     0.207 C 
ATOM     10  O1  NGK d 526      33.327   8.898  25.629  0.00  0.00    -0.369 OA
ATOM     11  O4  NGK d 526      35.767  11.076  28.336  0.00  0.00    -0.246 OA
ATOM     12  O3  NGK d 526      35.551   8.572  29.177  0.00  0.00    -0.348 OA
ATOM     13  S   NGK d 526      36.404  12.036  29.496  0.00  0.00     0.252 S 
ATOM     14  C3  NGK d 526      34.712   9.016  28.135  0.00  0.00     0.185 C 
ATOM     15  O5  NGK d 526      34.270  10.905  26.055  0.00  0.00    -0.349 OA
ATOM     16  C8  NGK d 526      37.136   5.609  25.995  0.00  0.00     0.117 C 
ATOM     17  O6  NGK d 526      32.423  12.798  28.535  0.00  0.00    -0.398 OA
ATOM     18  C7  NGK d 526      36.949   6.974  26.595  0.00  0.00     0.214 C 
ATOM     19  N   NGK d 526      35.739   7.518  26.417  0.00  0.00    -0.349 N 
ATOM     20  H   NGK d 526      32.873   8.965  26.484  0.00  0.00     0.212 HD
ATOM     21  H   NGK d 526      31.610  12.345  28.262  0.00  0.00     0.209 HD
ATOM     22  H   NGK d 526      35.028   6.965  26.021  0.00  0.00     0.163 HD
ATOM     23  O2  GCD d 527      35.654   5.533  31.071  0.00  0.00    -0.388 OA
ATOM     24  O3  GCD d 527      37.518   8.699  31.288  0.00  0.00    -0.389 OA
ATOM     25  C3  GCD d 527      36.615   7.673  31.715  0.00  0.00     0.177 C 
ATOM     26  C5  GCD d 527      34.162   8.248  31.843  0.00  0.00     0.144 C 
ATOM     27  C4  GCD d 527      35.409   8.314  32.360  0.00  0.00     0.051 C 
ATOM     28  C1  GCD d 527      35.058   7.328  29.725  0.00  0.00     0.298 C 
ATOM     29  O5  GCD d 527      33.921   7.534  30.581  0.00  0.00    -0.311 OA
ATOM     30  C2  GCD d 527      36.181   6.747  30.555  0.00  0.00     0.206 C 
ATOM     31  O6B GCD d 527      31.947   8.997  32.059  0.00  0.00    -0.645 OA
ATOM     32  C6  GCD d 527      33.093   8.936  32.563  0.00  0.00     0.200 C 
ATOM     33  O6A GCD d 527      33.380   9.458  33.662  0.00  0.00    -0.771 OA
ATOM     34  H   GCD d 527      36.324   5.097  31.620  0.00  0.00     0.210 HD
ATOM     35  H   GCD d 527      38.295   8.293  30.873  0.00  0.00     0.210 HD
ATOM     36  H   GCD d 527      34.251   9.387  34.001  0.00  0.00     0.167 HD
ENDROOT
TORSDOF 12
