REMARK  0 active torsions:
REMARK  status: ('A' for Active; 'I' for Inactive)
REMARK       I    between atoms: C4_2  and  O1_17 
REMARK       I    between atoms: O2_4  and  C2_27 
REMARK       I    between atoms: O2_4  and  S_25 
REMARK       I    between atoms: N_5  and  C2_12 
REMARK       I    between atoms: N_5  and  S1_10 
REMARK       I    between atoms: S2_6  and  O6_33 
REMARK       I    between atoms: C5_7  and  C6_29 
REMARK       I    between atoms: O1_9  and  C1_16 
REMARK       I    between atoms: C3_13  and  O3_21 
REMARK       I    between atoms: C1_15  and  O1_17 
REMARK       I    between atoms: O3_18  and  C3_32 
REMARK       I    between atoms: C6_28  and  C5_35 
REMARK       I    between atoms: C6_28  and  O6_33 
REMARK       I    between atoms: C6_29  and  O61_31 
ROOT
ATOM      1  O1S IDS d 402      33.242 -67.013  69.773  0.00  0.00    -0.572 OA
ATOM      2  C4  IDS d 402      28.610 -68.318  70.726  0.00  0.00     0.195 C 
ATOM      3  O2  IDS d 402      31.936 -69.040  69.079  0.00  0.00    -0.244 OA
ATOM      4  C5  IDS d 402      29.221 -67.344  71.737  0.00  0.00     0.253 C 
ATOM      5  O62 IDS d 402      27.871 -66.124  73.295  0.00  0.00    -0.648 OA
ATOM      6  O1  IDS d 402      31.720 -68.330  72.416  0.00  0.00    -0.368 OA
ATOM      7  C3  IDS d 402      29.610 -68.596  69.602  0.00  0.00     0.185 C 
ATOM      8  C1  IDS d 402      31.449 -67.786  71.104  0.00  0.00     0.291 C 
ATOM      9  O2S IDS d 402      34.282 -69.290  69.971  0.00  0.00    -0.572 OA
ATOM     10  O3  IDS d 402      29.162 -69.718  68.830  0.00  0.00    -0.390 OA
ATOM     11  O5  IDS d 402      30.423 -66.777  71.184  0.00  0.00    -0.340 OA
ATOM     12  S   IDS d 402      33.339 -68.402  69.133  0.00  0.00     0.252 S 
ATOM     13  C2  IDS d 402      30.997 -68.904  70.170  0.00  0.00     0.231 C 
ATOM     14  C6  IDS d 402      28.225 -66.215  72.085  0.00  0.00     0.172 C 
ATOM     15  O61 IDS d 402      27.851 -65.460  71.139  0.00  0.00    -0.774 OA
ATOM     16  O3S IDS d 402      33.903 -68.263  67.704  0.00  0.00    -0.572 OA
ATOM     17  H   IDS d 402      32.411 -69.007  72.349  0.00  0.00     0.212 HD
ATOM     18  H   IDS d 402      29.107 -70.501  69.400  0.00  0.00     0.210 HD
ATOM     19  H   IDS d 402      28.169 -65.606  70.270  0.00  0.00     0.167 HD
ATOM     20  O1S SGN d 403      24.864 -65.562  66.428  0.00  0.00    -0.582 OA
ATOM     21  N   SGN d 403      25.665 -66.818  68.562  0.00  0.00    -0.189 NA
ATOM     22  S2  SGN d 403      26.422 -70.794  74.019  0.00  0.00     0.251 S 
ATOM     23  S1  SGN d 403      25.626 -66.800  66.908  0.00  0.00     0.183 S 
ATOM     24  O3S SGN d 403      24.920 -68.060  66.399  0.00  0.00    -0.582 OA
ATOM     25  C2  SGN d 403      25.283 -68.148  69.067  0.00  0.00     0.157 C 
ATOM     26  O2S SGN d 403      27.053 -66.761  66.354  0.00  0.00    -0.582 OA
ATOM     27  C1  SGN d 403      26.407 -68.763  69.897  0.00  0.00     0.282 C 
ATOM     28  O1  SGN d 403      27.402 -67.753  70.177  0.00  0.00    -0.348 OA
ATOM     29  O3  SGN d 403      23.411 -69.397  69.989  0.00  0.00    -0.394 OA
ATOM     30  O6S SGN d 403      27.048 -69.792  74.992  0.00  0.00    -0.572 OA
ATOM     31  O4S SGN d 403      26.006 -72.050  74.785  0.00  0.00    -0.572 OA
ATOM     32  C4  SGN d 403      24.230 -67.507  71.278  0.00  0.00     0.067 C 
ATOM     33  O5  SGN d 403      25.860 -69.291  71.113  0.00  0.00    -0.352 OA
ATOM     34  C6  SGN d 403      24.997 -68.748  73.317  0.00  0.00     0.225 C 
ATOM     35  O5S SGN d 403      27.449 -71.176  72.949  0.00  0.00    -0.572 OA
ATOM     36  C3  SGN d 403      23.981 -68.081  69.880  0.00  0.00     0.144 C 
ATOM     37  O6  SGN d 403      25.188 -70.169  73.353  0.00  0.00    -0.254 OA
ATOM     38  C5  SGN d 403      25.410 -68.209  71.942  0.00  0.00     0.152 C 
ATOM     39  H   SGN d 403      26.609 -66.596  68.879  0.00  0.00     0.143 HD
ATOM     40  H   SGN d 403      23.255 -69.756  69.102  0.00  0.00     0.210 HD
ENDROOT
TORSDOF 14
