REMARK  0 active torsions:
REMARK  status: ('A' for Active; 'I' for Inactive)
REMARK       I    between atoms: C7_1  and  O3_10 
REMARK       I    between atoms: C8_2  and  N14_15 
REMARK       I    between atoms: O15_4  and  C10_7 
REMARK       I    between atoms: C2_6  and  C6_24 
REMARK       I    between atoms: S16_8  and  O11_13 
REMARK       I    between atoms: S16_8  and  O23_27 
REMARK       I    between atoms: C12_9  and  O18_11 
REMARK       I    between atoms: O3_10  and  C1_22 
REMARK       I    between atoms: O18_11  and  S26_34 
REMARK       I    between atoms: O28_12  and  S20_31 
REMARK       I    between atoms: O11_13  and  C6_24 
REMARK       I    between atoms: N14_15  and  S20_31 
REMARK       I    between atoms: O30_16  and  S20_31 
REMARK       I    between atoms: C17_17  and  O25_20 
REMARK       I    between atoms: C27_18  and  C19_19 
REMARK       I    between atoms: C27_18  and  O34_32 
REMARK       I    between atoms: O9_26  and  C4_28 
REMARK       I    between atoms: O33_30  and  S26_34 
REMARK       I    between atoms: S20_31  and  O29_33 
ROOT
ATOM      1  C7  H1S d  68     -21.247  -3.115   8.881  0.00  0.00     0.300 C 
ATOM      2  C8  H1S d  68     -18.424   0.542   9.081  0.00  0.00     0.157 C 
ATOM      3  O32 H1S d  68     -19.483  -2.377   4.473  0.00  0.00    -0.579 OA
ATOM      4  O15 H1S d  68     -18.765   2.611  10.244  0.00  0.00    -0.369 OA
ATOM      5  O35 H1S d  68     -20.768  -4.057  12.838  0.00  0.00    -0.645 OA
ATOM      6  C2  H1S d  68     -21.257   0.615   8.236  0.00  0.00     0.181 C 
ATOM      7  C10 H1S d  68     -19.473   1.555   9.562  0.00  0.00     0.278 C 
ATOM      8  S16 H1S d  68     -24.918   1.051   6.967  0.00  0.00     0.240 S 
ATOM      9  C12 H1S d  68     -20.534  -4.003   7.811  0.00  0.00     0.232 C 
ATOM     10  O3  H1S d  68     -21.448  -1.708   8.481  0.00  0.00    -0.348 OA
ATOM     11  O18 H1S d  68     -20.618  -3.464   6.420  0.00  0.00    -0.250 OA
ATOM     12  O28 H1S d  68     -16.983   3.200   7.906  0.00  0.00    -0.296 OA
ATOM     13  O11 H1S d  68     -23.598   0.400   7.221  0.00  0.00    -0.261 OA
ATOM     14  O31 H1S d  68     -18.474  -2.189   6.750  0.00  0.00    -0.579 OA
ATOM     15  N14 H1S d  68     -17.863   0.805   7.713  0.00  0.00    -0.210 NA
ATOM     16  O30 H1S d  68     -15.792   1.366   9.113  0.00  0.00    -0.296 OA
ATOM     17  C17 H1S d  68     -21.071  -5.468   8.036  0.00  0.00     0.179 C 
ATOM     18  C27 H1S d  68     -21.016  -5.011  12.088  0.00  0.00     0.200 C 
ATOM     19  C19 H1S d  68     -20.919  -4.739  10.545  0.00  0.00     0.144 C 
ATOM     20  O25 H1S d  68     -20.269  -6.518   7.408  0.00  0.00    -0.389 OA
ATOM     21  O22 H1S d  68     -25.619   0.415   5.793  0.00  0.00    -0.579 OA
ATOM     22  C1  H1S d  68     -20.720  -0.593   9.083  0.00  0.00     0.186 C 
ATOM     23  C24 H1S d  68     -21.177  -5.742   9.577  0.00  0.00     0.051 C 
ATOM     24  C6  H1S d  68     -22.809   0.742   8.435  0.00  0.00     0.226 C 
ATOM     25  O5  H1S d  68     -20.476   1.845   8.492  0.00  0.00    -0.350 OA
ATOM     26  O9  H1S d  68     -18.844  -1.276  10.455  0.00  0.00    -0.391 OA
ATOM     27  O23 H1S d  68     -24.722   2.514   6.624  0.00  0.00    -0.274 OA
ATOM     28  C4  H1S d  68     -19.164  -0.767   9.167  0.00  0.00     0.173 C 
ATOM     29  O21 H1S d  68     -25.802   0.937   8.200  0.00  0.00    -0.579 OA
ATOM     30  O33 H1S d  68     -20.546  -1.003   6.112  0.00  0.00    -0.274 OA
ATOM     31  S20 H1S d  68     -16.482   1.780   7.836  0.00  0.00     0.156 S 
ATOM     32  O34 H1S d  68     -21.331  -6.145  12.523  0.00  0.00    -0.771 OA
ATOM     33  O29 H1S d  68     -15.498   1.672   6.704  0.00  0.00    -0.296 OA
ATOM     34  S26 H1S d  68     -19.769  -2.288   5.963  0.00  0.00     0.241 S 
ATOM     35  O13 H1S d  68     -20.562  -3.475  10.128  0.00  0.00    -0.311 OA
ATOM     36  H   H1S d  68     -18.162   2.226  10.899  0.00  0.00     0.212 HD
ATOM     37  H   H1S d  68     -17.619   3.283   8.633  0.00  0.00     0.231 HD
ATOM     38  H   H1S d  68     -18.564   1.281   7.145  0.00  0.00     0.140 HD
ATOM     39  H   H1S d  68     -16.416   1.431   9.853  0.00  0.00     0.231 HD
ATOM     40  H   H1S d  68     -19.383  -6.528   7.803  0.00  0.00     0.210 HD
ATOM     41  H   H1S d  68     -17.884  -1.391  10.528  0.00  0.00     0.210 HD
ATOM     42  H   H1S d  68     -24.272   2.961   7.358  0.00  0.00     0.234 HD
ATOM     43  H   H1S d  68     -21.373  -1.065   5.610  0.00  0.00     0.234 HD
ATOM     44  H   H1S d  68     -21.512  -6.843  11.924  0.00  0.00     0.167 HD
ATOM     45  H   H1S d  68     -15.928   1.935   5.875  0.00  0.00     0.231 HD
ENDROOT
TORSDOF 19
