REMARK  16 active torsions:
REMARK  status: ('A' for Active; 'I' for Inactive)
REMARK    1  A    between atoms: C1_1  and  O4_26 
REMARK    2  A    between atoms: C2_2  and  N_3 
REMARK    3  A    between atoms: N_3  and  S1_23 
REMARK    4  A    between atoms: O2S_4  and  S1_23 
REMARK    5  A    between atoms: S_5  and  O2_15 
REMARK    6  A    between atoms: O1_6  and  C1_27 
REMARK    7  A    between atoms: C5_7  and  C6_28 
REMARK    8  A    between atoms: O3_8  and  C3_9 
REMARK    9  A    between atoms: C4_10  and  O4_26 
REMARK   10  A    between atoms: C4_11  and  O4_14 
REMARK   11  A    between atoms: O2_15  and  C2_22 
REMARK   12  A    between atoms: O6_17  and  C6_18 
REMARK   13  A    between atoms: C6_18  and  C5_29 
REMARK   14  A    between atoms: C3_19  and  O3_21 
REMARK   15  A    between atoms: S1_23  and  O1S_30 
REMARK   16  A    between atoms: S1_23  and  O3S_25 
ROOT
ATOM      1  C1  GNS d 142     -24.868 -13.810  59.640  0.00  0.00     0.282 C 
ATOM      2  C2  GNS d 142     -25.180 -12.800  58.543  0.00  0.00     0.157 C 
ATOM      3  C3  GNS d 142     -26.640 -12.891  58.117  0.00  0.00     0.172 C 
ATOM      4  C4  GNS d 142     -27.044 -14.338  57.858  0.00  0.00     0.179 C 
ATOM      5  O5  GNS d 142     -25.210 -15.105  59.197  0.00  0.00    -0.349 OA
ATOM      6  C5  GNS d 142     -26.600 -15.241  59.002  0.00  0.00     0.179 C 
ENDROOT
BRANCH   1   7
ATOM      7  O4  IDY d 143     -25.614 -13.497  60.795  0.00  0.00    -0.348 OA
BRANCH   7   8
ATOM      8  C4  IDY d 143     -25.875 -13.409  62.122  0.00  0.00     0.195 C 
ATOM      9  C5  IDY d 143     -27.238 -13.660  62.786  0.00  0.00     0.257 C 
ATOM     10  O5  IDY d 143     -28.169 -12.596  62.543  0.00  0.00    -0.340 OA
ATOM     11  C1  IDY d 143     -27.716 -11.289  62.913  0.00  0.00     0.293 C 
ATOM     12  C2  IDY d 143     -26.398 -10.852  62.261  0.00  0.00     0.231 C 
ATOM     13  C3  IDY d 143     -25.348 -11.968  62.253  0.00  0.00     0.185 C 
BRANCH   9  14
ATOM     14  C6  IDY d 143     -27.905 -14.865  62.192  0.00  0.00     0.206 C 
ATOM     15  O62 IDY d 143     -28.539 -14.780  61.077  0.00  0.00    -0.646 OA
ATOM     16  O61 IDY d 143     -27.860 -15.936  62.881  0.00  0.00    -0.646 OA
ENDBRANCH   9  14
BRANCH  11  17
ATOM     17  O1  IDY d 143     -27.608 -11.265  64.332  0.00  0.00    -0.363 OA
ATOM     18  C7  IDY d 143     -27.028 -12.083  64.881  0.00  0.00     0.204 C 
ENDBRANCH  11  17
BRANCH  12  19
ATOM     19  O2  IDY d 143     -26.625 -10.295  60.959  0.00  0.00    -0.244 OA
BRANCH  19  20
ATOM     20  S   IDY d 143     -27.334  -8.937  60.763  0.00  0.00     0.252 S 
ATOM     21  OS1 IDY d 143     -27.901  -8.884  59.381  0.00  0.00    -0.572 OA
ATOM     22  OS2 IDY d 143     -26.299  -7.905  60.895  0.00  0.00    -0.572 OA
ATOM     23  OS3 IDY d 143     -28.403  -8.700  61.794  0.00  0.00    -0.572 OA
ENDBRANCH  19  20
ENDBRANCH  12  19
BRANCH  13  24
ATOM     24  O3  IDY d 143     -24.681 -11.857  63.516  0.00  0.00    -0.390 OA
ATOM     25  H   IDY d 143     -25.319 -12.001  64.232  0.00  0.00     0.210 HD
ENDBRANCH  13  24
ENDBRANCH   7   8
ENDBRANCH   1   7
BRANCH   2  26
ATOM     26  N   GNS d 142     -24.881 -11.458  59.005  0.00  0.00    -0.210 NA
ATOM     27  H   GNS d 142     -24.356 -11.556  59.874  0.00  0.00     0.140 HD
BRANCH  26  28
ATOM     28  S1  GNS d 142     -24.050 -10.458  58.073  0.00  0.00     0.156 S 
BRANCH  28  29
ATOM     29  O2S GNS d 142     -24.505 -10.682  56.704  0.00  0.00    -0.296 OA
ATOM     30  H   GNS d 142     -24.291 -11.589  56.437  0.00  0.00     0.231 HD
ENDBRANCH  28  29
BRANCH  28  31
ATOM     31  O1S GNS d 142     -22.640 -10.799  58.240  0.00  0.00    -0.296 OA
ATOM     32  H   GNS d 142     -22.485 -11.701  57.920  0.00  0.00     0.231 HD
ENDBRANCH  28  31
BRANCH  28  33
ATOM     33  O3S GNS d 142     -24.342  -9.106  58.540  0.00  0.00    -0.296 OA
ATOM     34  H   GNS d 142     -25.285  -8.917  58.413  0.00  0.00     0.231 HD
ENDBRANCH  28  33
ENDBRANCH  26  28
ENDBRANCH   2  26
BRANCH   3  35
ATOM     35  O3  GNS d 142     -26.836 -12.132  56.945  0.00  0.00    -0.391 OA
ATOM     36  H   GNS d 142     -26.579 -11.211  57.109  0.00  0.00     0.210 HD
ENDBRANCH   3  35
BRANCH   6  37
ATOM     37  C6  GNS d 142     -26.930 -16.699  58.706  0.00  0.00     0.198 C 
BRANCH  37  38
ATOM     38  O6  GNS d 142     -25.762 -17.370  58.288  0.00  0.00    -0.398 OA
ATOM     39  H   GNS d 142     -25.972 -18.298  58.100  0.00  0.00     0.209 HD
ENDBRANCH  37  38
ENDBRANCH   6  37
BRANCH   4  40
ATOM     40  O4  GNS d 142     -28.444 -14.416  57.714  0.00  0.00    -0.390 OA
ATOM     41  H   GNS d 142     -28.870 -14.115  58.532  0.00  0.00     0.210 HD
ENDBRANCH   4  40
TORSDOF 16
