REMARK WARNING: 32 MAX_TORS EXCEEDED!!!
REMARK  51 active torsions:
REMARK  status: ('A' for Active; 'I' for Inactive)
REMARK    1  A    between atoms: S5H_1  and  O5I_39 
REMARK    2  A    between atoms: S5H_1  and  O5J_59 
REMARK    3  A    between atoms: S5H_1  and  O5K_23 
REMARK    4  A    between atoms: S5H_1  and  N5G_46 
REMARK    5  A    between atoms: C40_3  and  O3M_12 
REMARK    6  A    between atoms: C31_5  and  C33_52 
REMARK    7  A    between atoms: O4G_6  and  C4F_77 
REMARK    8  A    between atoms: O4G_6  and  C50_17 
REMARK    9  A    between atoms: C29_7  and  O2A_69 
REMARK   10  A    between atoms: C21_8  and  C23_83 
REMARK   11  A    between atoms: C12_9  and  O10_41 
REMARK   12  A    between atoms: O5A_10  and  C59_86 
REMARK   13  A    between atoms: O1C_11  and  C1B_87 
REMARK   14  A    between atoms: O3M_12  and  C3L_36 
REMARK   15  A    between atoms: C1E_13  and  N1F_63 
REMARK   16  A    between atoms: C3F_15  and  N3G_48 
REMARK   17  A    between atoms: O5M_18  and  C5L_72 
REMARK   18  A    between atoms: S55_20  and  O54_49 
REMARK   19  A    between atoms: S55_20  and  O58_71 
REMARK   20  A    between atoms: O25_21  and  C23_83 
REMARK   21  A    between atoms: O3J_22  and  S3H_31 
REMARK   22  A    between atoms: C39_24  and  O3A_65 
REMARK   23  A    between atoms: O3K_25  and  S3H_31 
REMARK   24  A    between atoms: O1J_26  and  S1G_67 
REMARK   25  A    between atoms: O4A_29  and  C49_88 
REMARK   26  A    between atoms: O4A_29  and  S4B_64 
REMARK   27  A    between atoms: C13_30  and  C15_44 
REMARK   28  A    between atoms: S3H_31  and  O3I_58 
REMARK   29  A    between atoms: S3H_31  and  N3G_48 
REMARK   30  A    between atoms: C41_35  and  C43_85 
REMARK   31  A    between atoms: C2C_37  and  O2D_78 
REMARK   32  A    between atoms: C26_38  and  O27_81 
REMARK   33  A    between atoms: C30_40  and  O2D_78 
REMARK   34  A    between atoms: O47_42  and  C46_76 
REMARK   35  A    between atoms: O1A_43  and  S17_80 
REMARK   36  A    between atoms: C15_44  and  O16_74 
REMARK   37  A    between atoms: S3B_45  and  O3A_65 
REMARK   38  A    between atoms: S3B_45  and  O3E_56 
REMARK   39  A    between atoms: N5G_46  and  C5F_79 
REMARK   40  A    between atoms: O1L_47  and  C1K_84 
REMARK   41  A    between atoms: O1L_47  and  C20_53 
REMARK   42  A    between atoms: O54_49  and  C53_70 
REMARK   43  A    between atoms: O37_51  and  S35_68 
REMARK   44  A    between atoms: C33_52  and  O34_55 
REMARK   45  A    between atoms: O34_55  and  S35_68 
REMARK   46  A    between atoms: O4E_57  and  S4B_64 
REMARK   47  A    between atoms: N1F_63  and  S1G_67 
REMARK   48  A    between atoms: S1G_67  and  O1I_89 
REMARK   49  A    between atoms: C53_70  and  C51_82 
REMARK   50  A    between atoms: O44_73  and  C43_85 
REMARK   51  A    between atoms: O16_74  and  S17_80 
ROOT
ATOM      1  H   NTO d 863      55.446  -1.514   3.438  0.00  0.00     0.000 HD
ENDROOT
TORSDOF 51
