REMARK  10 active torsions:
REMARK  status: ('A' for Active; 'I' for Inactive)
REMARK    1  A    between atoms: C2_1  and  O2_21 
REMARK    2  A    between atoms: O6_3  and  C6_7 
REMARK    3  A    between atoms: C1_4  and  O3_17 
REMARK    4  A    between atoms: O1_5  and  C1_23 
REMARK    5  A    between atoms: C3_6  and  O3_9 
REMARK    6  A    between atoms: C6_7  and  C5_22 
REMARK    7  A    between atoms: C2_8  and  N2_19 
REMARK    8  A    between atoms: C3_10  and  O3_17 
REMARK    9  A    between atoms: O4_11  and  C4_15 
REMARK   10  A    between atoms: C6_16  and  C5_26 
REMARK       I    between atoms: C7_18  and  N2_19 
ROOT
ATOM      1  C2  NAG d 810      -1.038  39.585  76.514  0.00  0.00     0.171 C 
ATOM      2  C3  NAG d 810      -1.809  38.560  77.308  0.00  0.00     0.183 C 
ATOM      3  O5  NAG d 810       0.414  40.061  78.391  0.00  0.00    -0.349 OA
ATOM      4  C4  NAG d 810      -0.822  37.949  78.296  0.00  0.00     0.180 C 
ATOM      5  C5  NAG d 810      -0.205  39.050  79.188  0.00  0.00     0.179 C 
ATOM      6  C1  NAG d 810      -0.501  40.676  77.472  0.00  0.00     0.282 C 
ENDROOT
BRANCH   2   7
ATOM      7  O3  NAG d 810      -2.421  37.590  76.438  0.00  0.00    -0.348 OA
BRANCH   7   8
ATOM      8  C1  GAD d 809      -3.723  37.246  76.385  0.00  0.00     0.298 C 
ATOM      9  C2  GAD d 809      -4.104  36.394  75.164  0.00  0.00     0.206 C 
ATOM     10  C3  GAD d 809      -5.614  36.427  74.926  0.00  0.00     0.177 C 
ATOM     11  C4  GAD d 809      -6.392  37.137  76.078  0.00  0.00     0.051 C 
ATOM     12  C5  GAD d 809      -5.905  37.095  77.324  0.00  0.00     0.147 C 
ATOM     13  O5  GAD d 809      -4.543  36.637  77.411  0.00  0.00    -0.311 OA
BRANCH   9  14
ATOM     14  O2  GAD d 809      -3.521  36.881  73.980  0.00  0.00    -0.388 OA
ATOM     15  H   GAD d 809      -3.850  37.776  73.802  0.00  0.00     0.210 HD
ENDBRANCH   9  14
BRANCH  10  16
ATOM     16  O3  GAD d 809      -6.085  35.126  74.525  0.00  0.00    -0.389 OA
ATOM     17  H   GAD d 809      -5.919  34.488  75.237  0.00  0.00     0.210 HD
ENDBRANCH  10  16
BRANCH  12  18
ATOM     18  C6  GAD d 809      -6.580  37.539  78.633  0.00  0.00     0.233 C 
ATOM     19  O6A GAD d 809      -7.734  38.089  78.693  0.00  0.00    -0.642 OA
ATOM     20  O6B GAD d 809      -5.850  37.256  79.622  0.00  0.00    -0.642 OA
ENDBRANCH  12  18
ENDBRANCH   7   8
ENDBRANCH   2   7
BRANCH   1  21
ATOM     21  N2  NAG d 810      -1.919  40.128  75.518  0.00  0.00    -0.349 N 
ATOM     22  C7  NAG d 810      -1.822  39.844  74.227  0.00  0.00     0.214 C 
ATOM     23  C8  NAG d 810      -3.013  40.247  73.372  0.00  0.00     0.117 C 
ATOM     24  O7  NAG d 810      -0.824  39.309  73.772  0.00  0.00    -0.274 OA
ATOM     25  H   NAG d 810      -2.631  40.742  75.809  0.00  0.00     0.163 HD
ENDBRANCH   1  21
BRANCH   4  26
ATOM     26  O4  NAG d 810      -1.442  36.909  79.050  0.00  0.00    -0.390 OA
ATOM     27  H   NAG d 810      -1.811  36.247  78.445  0.00  0.00     0.210 HD
ENDBRANCH   4  26
BRANCH   6  28
ATOM     28  O1  NAG d 810       0.139  41.727  76.743  0.00  0.00    -0.369 OA
ATOM     29  H   NAG d 810      -0.496  42.128  76.129  0.00  0.00     0.212 HD
ENDBRANCH   6  28
BRANCH   5  30
ATOM     30  C6  NAG d 810       0.843  38.351  80.057  0.00  0.00     0.198 C 
BRANCH  30  31
ATOM     31  O6  NAG d 810       1.476  39.369  80.756  0.00  0.00    -0.398 OA
ATOM     32  H   NAG d 810       2.159  38.990  81.331  0.00  0.00     0.209 HD
ENDBRANCH  30  31
ENDBRANCH   5  30
TORSDOF 10
