REMARK 10 active torsions
REMARK    1  A    between atoms: atom2  and  atom_
REMARK    2  A    between atoms: atom7  and  atom_
REMARK    3  A    between atoms: atom1  and  atom2
REMARK    4  A    between atoms: atom3  and  atom_
REMARK    5  A    between atoms: atom3  and  atom5
REMARK    6  A    between atoms: atom1  and  atom4
REMARK    7  A    between atoms: atom5  and  atom_
REMARK    8  A    between atoms: atom2  and  atom7
REMARK    9  A    between atoms: atom1  and  atom_
REMARK    10  A    between atoms: atom6  and  atom_
ROOT
ATOM      1  C3  SGN d 141     -41.837  -4.898  18.504  0.00  0.00     0.172 C 
ATOM      2  C1  SGN d 141     -39.438  -4.987  17.886  0.00  0.00     0.282 C 
ATOM      3  C5  SGN d 141     -40.326  -6.849  19.049  0.00  0.00     0.181 C 
ATOM      4  O5  SGN d 141     -39.417  -6.388  18.088  0.00  0.00    -0.349 OA
ATOM      5  C2  SGN d 141     -40.818  -4.485  17.460  0.00  0.00     0.160 C 
ATOM      6  C4  SGN d 141     -41.739  -6.383  18.720  0.00  0.00     0.179 C 
ENDROOT
BRANCH   1  33
ATOM     33  O3  SGN d 141     -43.169  -4.657  18.112  0.00  0.00    -0.391 OA
ATOM     34  H   SGN d 141     -43.373  -5.179  17.320  0.00  0.00     0.210 HD
ENDBRANCH   1  33
BRANCH   2   7
ATOM      7  O4  IDY d 142     -39.044  -4.356  19.076  0.00  0.00    -0.348 OA
BRANCH   7   8
ATOM      8  C4  IDY d 142     -37.785  -3.666  19.536  0.00  0.00     0.195 C 
ATOM      9  C5  IDY d 142     -37.773  -3.621  21.056  0.00  0.00     0.253 C 
ATOM     10  O5  IDY d 142     -38.439  -2.480  21.620  0.00  0.00    -0.340 OA
ATOM     11  C1  IDY d 142     -38.042  -1.250  21.050  0.00  0.00     0.293 C 
ATOM     12  C2  IDY d 142     -38.137  -1.163  19.549  0.00  0.00     0.231 C 
ATOM     13  C3  IDY d 142     -37.617  -2.365  18.828  0.00  0.00     0.185 C 
ATOM     14  C6  IDY d 142     -38.525  -4.806  21.617  0.00  0.00     0.172 C 
ATOM     15  O61 IDY d 142     -37.849  -5.661  22.341  0.00  0.00    -0.648 OA
ATOM     18  O1  IDY d 142     -37.000  -0.762  21.501  0.00  0.00    -0.363 OA
ATOM     19  C7  IDY d 142     -35.673  -0.290  21.637  0.00  0.00     0.204 C 
ATOM     25  O3  IDY d 142     -36.177  -2.136  18.540  0.00  0.00    -0.390 OA
ATOM     26  H   IDY d 142     -36.070  -1.289  18.079  0.00  0.00     0.210 HD
BRANCH  12  20
ATOM     20  O2  IDY d 142     -39.523  -0.915  19.229  0.00  0.00    -0.244 OA
ATOM     21  S   IDY d 142     -40.107   0.456  19.484  0.00  0.00     0.252 S 
ATOM     22  OS1 IDY d 142     -41.574   0.357  19.443  0.00  0.00    -0.572 OA
ATOM     23  OS2 IDY d 142     -39.643   1.365  18.413  0.00  0.00    -0.572 OA
ATOM     24  OS3 IDY d 142     -39.625   0.999  20.798  0.00  0.00    -0.572 OA
ENDBRANCH  12  20
BRANCH  14  16
ATOM     16  O62 IDY d 142     -39.848  -4.607  21.772  0.00  0.00    -0.774 OA
ENDBRANCH  14  16
ENDBRANCH   7   8
ENDBRANCH   2   7
BRANCH   3  35
ATOM     35  C6  SGN d 141     -40.255  -8.358  19.011  0.00  0.00     0.227 C 
BRANCH  35  36
ATOM     36  O6  SGN d 141     -39.694  -8.744  17.779  0.00  0.00    -0.254 OA
ATOM     37  S2  SGN d 141     -38.934 -10.090  17.747  0.00  0.00     0.251 S 
ATOM     38  O4S SGN d 141     -38.702 -10.458  16.366  0.00  0.00    -0.572 OA
ATOM     39  O5S SGN d 141     -39.828 -11.001  18.410  0.00  0.00    -0.572 OA
ATOM     40  O6S SGN d 141     -37.693  -9.942  18.496  0.00  0.00    -0.572 OA
ENDBRANCH  35  36
ENDBRANCH   3  35
BRANCH   5  27
ATOM     27  N   SGN d 141     -40.800  -3.050  17.329  0.00  0.00    -0.189 NA
ATOM     28  H   SGN d 141     -41.584  -2.690  17.874  0.00  0.00     0.143 HD
BRANCH  27  29
ATOM     29  S1  SGN d 141     -40.906  -2.412  15.892  0.00  0.00     0.183 S 
ATOM     30  O2S SGN d 141     -41.820  -3.266  15.210  0.00  0.00    -0.582 OA
ATOM     31  O1S SGN d 141     -41.426  -1.084  16.006  0.00  0.00    -0.582 OA
ATOM     32  O3S SGN d 141     -39.612  -2.465  15.279  0.00  0.00    -0.582 OA
ENDBRANCH  27  29
ENDBRANCH   5  27
BRANCH   6  41
ATOM     41  O4  SGN d 141     -42.611  -6.583  19.794  0.00  0.00    -0.390 OA
ATOM     42  H   SGN d 141     -43.499  -6.277  19.551  0.00  0.00     0.210 HD
ENDBRANCH   6  41
TORSDOF 10
