REMARK  0 active torsions:
REMARK  status: ('A' for Active; 'I' for Inactive)
REMARK       I    between atoms: O6_1  and  C6_21 
REMARK       I    between atoms: C7_5  and  N_30 
REMARK       I    between atoms: C3_6  and  O3_23 
REMARK       I    between atoms: C1_8  and  O1_14 
REMARK       I    between atoms: C1_9  and  O3_12 
REMARK       I    between atoms: O6A_10  and  C6_18 
REMARK       I    between atoms: O3_12  and  C3_20 
REMARK       I    between atoms: C5_13  and  C6_18 
REMARK       I    between atoms: C4_16  and  O4_29 
REMARK       I    between atoms: C6_21  and  C5_25 
REMARK       I    between atoms: S_22  and  O4_29 
REMARK       I    between atoms: C2_24  and  N_30 
REMARK       I    between atoms: O2_27  and  C2_28 
ROOT
ATOM      1  O6  ASG d 517      29.221  23.951   3.101  0.00  0.00    -0.398 OA
ATOM      2  OSC ASG d 517      27.368  26.249   0.718  0.00  0.00    -0.572 OA
ATOM      3  C7  ASG d 517      23.668  21.093  -1.333  0.00  0.00     0.214 C 
ATOM      4  C1  ASG d 517      25.694  21.103   1.552  0.00  0.00     0.282 C 
ATOM      5  O5  ASG d 517      26.230  21.908   2.592  0.00  0.00    -0.349 OA
ATOM      6  O3  ASG d 517      26.036  23.496  -1.188  0.00  0.00    -0.348 OA
ATOM      7  O1  ASG d 517      24.544  20.440   2.020  0.00  0.00    -0.369 OA
ATOM      8  C8  ASG d 517      23.310  20.035  -2.380  0.00  0.00     0.117 C 
ATOM      9  C4  ASG d 517      27.071  23.424   0.996  0.00  0.00     0.207 C 
ATOM     10  OSB ASG d 517      24.926  26.286   0.222  0.00  0.00    -0.572 OA
ATOM     11  OSA ASG d 517      25.772  26.634   2.490  0.00  0.00    -0.572 OA
ATOM     12  C3  ASG d 517      26.517  22.618  -0.176  0.00  0.00     0.185 C 
ATOM     13  C6  ASG d 517      27.973  23.355   3.390  0.00  0.00     0.199 C 
ATOM     14  S   ASG d 517      26.065  25.956   1.239  0.00  0.00     0.252 S 
ATOM     15  C2  ASG d 517      25.296  21.868   0.310  0.00  0.00     0.171 C 
ATOM     16  C5  ASG d 517      27.422  22.561   2.204  0.00  0.00     0.181 C 
ATOM     17  O7  ASG d 517      22.918  22.052  -1.076  0.00  0.00    -0.274 OA
ATOM     18  O4  ASG d 517      26.042  24.336   1.421  0.00  0.00    -0.246 OA
ATOM     19  N   ASG d 517      24.825  20.883  -0.682  0.00  0.00    -0.349 N 
ATOM     20  H   ASG d 517      29.532  24.442   3.877  0.00  0.00     0.209 HD
ATOM     21  H   ASG d 517      23.866  21.094   2.252  0.00  0.00     0.212 HD
ATOM     22  H   ASG d 517      25.356  20.075  -0.867  0.00  0.00     0.163 HD
ATOM     23  O6B GCD d 519      29.827  25.637  -1.054  0.00  0.00    -0.645 OA
ATOM     24  O5  GCD d 519      28.047  23.943  -2.230  0.00  0.00    -0.311 OA
ATOM     25  C3  GCD d 519      27.026  24.531  -4.744  0.00  0.00     0.177 C 
ATOM     26  C4  GCD d 519      28.168  25.356  -4.178  0.00  0.00     0.051 C 
ATOM     27  C1  GCD d 519      26.747  23.411  -2.440  0.00  0.00     0.298 C 
ATOM     28  O6A GCD d 519      30.523  26.421  -2.971  0.00  0.00    -0.771 OA
ATOM     29  C5  GCD d 519      28.616  25.061  -2.945  0.00  0.00     0.144 C 
ATOM     30  C6  GCD d 519      29.708  25.764  -2.289  0.00  0.00     0.200 C 
ATOM     31  O3  GCD d 519      26.385  25.326  -5.744  0.00  0.00    -0.389 OA
ATOM     32  O2  GCD d 519      25.007  23.339  -4.041  0.00  0.00    -0.388 OA
ATOM     33  C2  GCD d 519      26.063  24.164  -3.590  0.00  0.00     0.206 C 
ATOM     34  H   GCD d 519      30.405  26.497  -3.897  0.00  0.00     0.167 HD
ATOM     35  H   GCD d 519      26.076  26.156  -5.348  0.00  0.00     0.210 HD
ATOM     36  H   GCD d 519      24.544  23.777  -4.772  0.00  0.00     0.210 HD
ENDROOT
TORSDOF 12
