REMARK 23 active torsions
REMARK    1  A    between atoms: atom1  and  atom_
REMARK    2  A    between atoms: atom7  and  atom_
REMARK    3  A    between atoms: atom1  and  atom1
REMARK    4  A    between atoms: atom1  and  atom8
REMARK    5  A    between atoms: atom2  and  atom4
REMARK    6  A    between atoms: atom3  and  atom5
REMARK    7  A    between atoms: atom1  and  atom2
REMARK    8  A    between atoms: atom3  and  atom_
REMARK    9  A    between atoms: atom5  and  atom6
REMARK    10  A    between atoms: atom5  and  atom_
REMARK    11  A    between atoms: atom6  and  atom2
REMARK    12  A    between atoms: atom6  and  atom4
REMARK    13  A    between atoms: atom6  and  atom6
REMARK    14  A    between atoms: atom7  and  atom6
REMARK    15  A    between atoms: atom8  and  atom1
REMARK    16  A    between atoms: atom9  and  atom3
REMARK    17  A    between atoms: atom1  and  atom4
REMARK    18  A    between atoms: atom2  and  atom7
REMARK    19  A    between atoms: atom6  and  atom_
REMARK    20  A    between atoms: atom4  and  atom8
REMARK    21  A    between atoms: atom4  and  atom_
REMARK    22  A    between atoms: atom8  and  atom3
REMARK    23  A    between atoms: atom9  and  atom9
ROOT
ATOM      1  C1  SGN d 303     -16.950   4.833  43.834  0.00  0.00     0.282 C 
ATOM      2  O5  SGN d 303     -17.475   5.400  45.023  0.00  0.00    -0.349 OA
ATOM      3  C5  SGN d 303     -16.475   5.831  45.936  0.00  0.00     0.181 C 
ATOM      4  C3  SGN d 303     -15.016   6.438  43.995  0.00  0.00     0.173 C 
ATOM      5  C4  SGN d 303     -15.652   6.975  45.331  0.00  0.00     0.186 C 
ATOM      6  C2  SGN d 303     -16.124   5.878  43.090  0.00  0.00     0.160 C 
ENDROOT
BRANCH   1   7
ATOM      7  O4  IDS d 302     -16.111   3.733  44.096  0.00  0.00    -0.348 OA
BRANCH   7   8
ATOM      8  C4  IDS d 302     -16.627   2.457  43.850  0.00  0.00     0.195 C 
ATOM      9  C5  IDS d 302     -16.553   1.691  45.130  0.00  0.00     0.253 C 
ATOM     10  O5  IDS d 302     -15.223   1.623  45.538  0.00  0.00    -0.340 OA
ATOM     11  C1  IDS d 302     -14.492   0.720  44.742  0.00  0.00     0.294 C 
ATOM     12  C2  IDS d 302     -14.453   1.174  43.275  0.00  0.00     0.231 C 
ATOM     13  C3  IDS d 302     -15.780   1.757  42.756  0.00  0.00     0.185 C 
ATOM     14  C6  IDS d 302     -17.428   2.229  46.200  0.00  0.00     0.172 C 
ATOM     15  O62 IDS d 302     -18.613   2.424  45.985  0.00  0.00    -0.648 OA
ATOM     46  O3  IDS d 302     -16.546   0.702  42.221  0.00  0.00    -0.390 OA
ATOM     47  H   IDS d 302     -16.744   0.060  42.920  0.00  0.00     0.210 HD
BRANCH  11  18
ATOM     18  O4  SGN d 301     -15.088  -0.547  44.792  0.00  0.00    -0.348 OA
BRANCH  18  19
ATOM     19  C4  SGN d 301     -14.418  -1.414  45.629  0.00  0.00     0.186 C 
ATOM     20  C3  SGN d 301     -15.385  -2.172  46.517  0.00  0.00     0.173 C 
ATOM     21  C2  SGN d 301     -14.489  -2.964  47.460  0.00  0.00     0.160 C 
ATOM     22  C1  SGN d 301     -13.632  -3.922  46.628  0.00  0.00     0.278 C 
ATOM     23  O5  SGN d 301     -12.923  -3.226  45.635  0.00  0.00    -0.350 OA
ATOM     24  C5  SGN d 301     -13.762  -2.464  44.800  0.00  0.00     0.181 C 
ATOM     25  O3  SGN d 301     -16.199  -1.270  47.232  0.00  0.00    -0.391 OA
ATOM     26  H   SGN d 301     -15.640  -0.671  47.751  0.00  0.00     0.210 HD
ATOM     27  N   SGN d 301     -15.256  -3.692  48.452  0.00  0.00    -0.189 NA
ATOM     28  H   SGN d 301     -15.024  -4.680  48.355  0.00  0.00     0.143 HD
ATOM     33  O1  SGN d 301     -14.469  -4.908  46.017  0.00  0.00    -0.369 OA
ATOM     34  H   SGN d 301     -15.106  -4.472  45.429  0.00  0.00     0.212 HD
BRANCH  24  35
ATOM     35  C6  SGN d 301     -12.955  -1.929  43.649  0.00  0.00     0.227 C 
BRANCH  35  36
ATOM     36  O6  SGN d 301     -11.881  -1.252  44.159  0.00  0.00    -0.254 OA
ATOM     37  S2  SGN d 301     -10.462  -1.820  44.132  0.00  0.00     0.251 S 
ATOM     38  O4S SGN d 301      -9.647  -0.819  43.469  0.00  0.00    -0.572 OA
ATOM     39  O5S SGN d 301     -10.092  -1.988  45.523  0.00  0.00    -0.572 OA
ATOM     40  O6S SGN d 301     -10.557  -3.065  43.376  0.00  0.00    -0.572 OA
ENDBRANCH  35  36
ENDBRANCH  24  35
BRANCH  27  29
ATOM     29  S1  SGN d 301     -15.029  -3.286  50.019  0.00  0.00     0.183 S 
ATOM     30  O2S SGN d 301     -15.530  -1.929  50.140  0.00  0.00    -0.582 OA
ATOM     31  O1S SGN d 301     -13.589  -3.419  50.293  0.00  0.00    -0.582 OA
ATOM     32  O3S SGN d 301     -15.858  -4.209  50.755  0.00  0.00    -0.582 OA
ENDBRANCH  27  29
ENDBRANCH  18  19
ENDBRANCH  11  18
BRANCH  12  41
ATOM     41  O2  IDS d 302     -13.435   2.139  43.086  0.00  0.00    -0.244 OA
ATOM     42  S   IDS d 302     -12.792   2.548  41.723  0.00  0.00     0.252 S 
ATOM     43  O1S IDS d 302     -13.367   3.803  41.386  0.00  0.00    -0.572 OA
ATOM     44  O2S IDS d 302     -11.385   2.616  41.912  0.00  0.00    -0.572 OA
ATOM     45  O3S IDS d 302     -13.181   1.545  40.808  0.00  0.00    -0.572 OA
ENDBRANCH  12  41
BRANCH  14  16
ATOM     16  O61 IDS d 302     -16.972   2.477  47.304  0.00  0.00    -0.774 OA
ENDBRANCH  14  16
ENDBRANCH   7   8
ENDBRANCH   1   7
BRANCH   3  56
ATOM     56  C6  SGN d 303     -17.177   6.153  47.219  0.00  0.00     0.227 C 
BRANCH  56  57
ATOM     57  O6  SGN d 303     -18.050   7.189  46.959  0.00  0.00    -0.254 OA
ATOM     58  S2  SGN d 303     -19.352   7.460  47.760  0.00  0.00     0.251 S 
ATOM     59  O4S SGN d 303     -18.948   7.670  49.123  0.00  0.00    -0.572 OA
ATOM     60  O5S SGN d 303     -19.912   8.649  47.162  0.00  0.00    -0.572 OA
ATOM     61  O6S SGN d 303     -20.191   6.283  47.592  0.00  0.00    -0.572 OA
ENDBRANCH  56  57
ENDBRANCH   3  56
BRANCH   4  54
ATOM     54  O3  SGN d 303     -14.382   7.491  43.315  0.00  0.00    -0.391 OA
ATOM     55  H   SGN d 303     -13.992   7.156  42.493  0.00  0.00     0.210 HD
ENDBRANCH   4  54
BRANCH   5  62
ATOM     62  O4  SGN d 303     -14.625   7.300  46.221  0.00  0.00    -0.348 OA
BRANCH  62  63
ATOM     63  C1  IDS d 304     -14.852   8.329  47.151  0.00  0.00     0.294 C 
ATOM     64  C2  IDS d 304     -13.817   8.212  48.276  0.00  0.00     0.231 C 
ATOM     65  C3  IDS d 304     -12.392   8.645  47.834  0.00  0.00     0.185 C 
ATOM     66  C4  IDS d 304     -12.408   9.909  46.987  0.00  0.00     0.195 C 
ATOM     67  C5  IDS d 304     -13.527   9.868  45.981  0.00  0.00     0.253 C 
ATOM     68  O5  IDS d 304     -14.764   9.616  46.566  0.00  0.00    -0.340 OA
ATOM     74  O3  IDS d 304     -11.816   7.630  47.057  0.00  0.00    -0.390 OA
ATOM     75  H   IDS d 304     -11.790   6.806  47.569  0.00  0.00     0.210 HD
ATOM     99  C6  IDS d 304     -13.625  11.088  45.185  0.00  0.00     0.172 C 
ATOM    100  O61 IDS d 304     -14.665  11.713  45.134  0.00  0.00    -0.648 OA
BRANCH  64  69
ATOM     69  O2  IDS d 304     -14.215   9.037  49.339  0.00  0.00    -0.244 OA
ATOM     70  S   IDS d 304     -15.118   8.644  50.542  0.00  0.00     0.252 S 
ATOM     71  O1S IDS d 304     -14.283   7.892  51.433  0.00  0.00    -0.572 OA
ATOM     72  O2S IDS d 304     -15.499   9.899  51.063  0.00  0.00    -0.572 OA
ATOM     73  O3S IDS d 304     -16.252   7.901  50.117  0.00  0.00    -0.572 OA
ENDBRANCH  64  69
BRANCH  66  76
ATOM     76  O4  IDS d 304     -12.601  11.003  47.819  0.00  0.00    -0.348 OA
BRANCH  76  77
ATOM     77  C1  SGN d 305     -11.443  11.722  48.188  0.00  0.00     0.282 C 
ATOM     78  C2  SGN d 305     -11.824  12.717  49.282  0.00  0.00     0.160 C 
ATOM     79  C3  SGN d 305     -12.865  13.694  48.692  0.00  0.00     0.172 C 
ATOM     80  C4  SGN d 305     -12.188  14.449  47.529  0.00  0.00     0.179 C 
ATOM     81  C5  SGN d 305     -11.729  13.419  46.485  0.00  0.00     0.181 C 
ATOM     82  O5  SGN d 305     -10.862  12.423  47.085  0.00  0.00    -0.349 OA
ATOM     83  N   SGN d 305     -12.328  12.003  50.472  0.00  0.00    -0.189 NA
ATOM     84  H   SGN d 305     -12.894  11.221  50.143  0.00  0.00     0.143 HD
ATOM     89  O3  SGN d 305     -13.265  14.645  49.666  0.00  0.00    -0.391 OA
ATOM     90  H   SGN d 305     -13.918  15.249  49.279  0.00  0.00     0.210 HD
ATOM     91  O4  SGN d 305     -13.167  15.315  46.976  0.00  0.00    -0.390 OA
ATOM     92  H   SGN d 305     -13.446  15.958  47.647  0.00  0.00     0.210 HD
BRANCH  81  93
ATOM     93  C6  SGN d 305     -10.976  14.022  45.296  0.00  0.00     0.227 C 
BRANCH  93  94
ATOM     94  O6  SGN d 305      -9.737  14.512  45.714  0.00  0.00    -0.254 OA
ATOM     95  S2  SGN d 305      -8.581  15.029  44.772  0.00  0.00     0.251 S 
ATOM     96  O5S SGN d 305      -7.315  14.850  45.476  0.00  0.00    -0.572 OA
ATOM     97  O4S SGN d 305      -8.918  16.419  44.553  0.00  0.00    -0.572 OA
ATOM     98  O6S SGN d 305      -8.622  14.221  43.565  0.00  0.00    -0.572 OA
ENDBRANCH  93  94
ENDBRANCH  81  93
BRANCH  83  85
ATOM     85  S1  SGN d 305     -11.221  11.406  51.507  0.00  0.00     0.183 S 
ATOM     86  O1S SGN d 305     -10.379  10.524  50.757  0.00  0.00    -0.582 OA
ATOM     87  O2S SGN d 305     -10.448  12.503  52.015  0.00  0.00    -0.582 OA
ATOM     88  O3S SGN d 305     -11.994  10.746  52.506  0.00  0.00    -0.582 OA
ENDBRANCH  83  85
ENDBRANCH  76  77
ENDBRANCH  66  76
BRANCH  99  101
ATOM    101  O62 IDS d 304     -12.678  11.482  44.575  0.00  0.00    -0.774 OA
ENDBRANCH  99  101
ENDBRANCH  62  63
ENDBRANCH   5  62
BRANCH   6  48
ATOM     48  N   SGN d 303     -15.577   5.284  41.872  0.00  0.00    -0.189 NA
ATOM     49  H   SGN d 303     -14.666   5.709  41.701  0.00  0.00     0.143 HD
BRANCH  48  50
ATOM     50  S1  SGN d 303     -16.456   5.457  40.536  0.00  0.00     0.183 S 
ATOM     51  O2S SGN d 303     -16.465   6.864  40.283  0.00  0.00    -0.582 OA
ATOM     52  O1S SGN d 303     -17.783   4.970  40.827  0.00  0.00    -0.582 OA
ATOM     53  O3S SGN d 303     -15.792   4.705  39.548  0.00  0.00    -0.582 OA
ENDBRANCH  48  50
ENDBRANCH   6  48
TORSDOF 23
