REMARK  10 active torsions:
REMARK  status: ('A' for Active; 'I' for Inactive)
REMARK    1 I    between atoms: O6_4  and  C6_20 
REMARK    2 I    between atoms: C3_6  and  O3_22 
REMARK    3 I    between atoms: O1_7  and  C1_15 
REMARK    4 I    between atoms: O4_9  and  C4_11 
REMARK    5 I    between atoms: C1_10  and  O3_22 
REMARK    6 I    between atoms: C5_12  and  C6_17 
REMARK    7 I    between atoms: C2_13  and  O2_25 
REMARK    8 I    between atoms: C5_16  and  C6_20 
REMARK      I    between atoms: C7_18  and  N2_19 
REMARK    9 I    between atoms: N2_19  and  C2_23 
REMARK   10 I    between atoms: C3_21  and  O3_24 
ROOT
ATOM      1  C3  NAG d 902       7.386 -10.249  30.673  0.00  0.00     0.183 C 
ATOM      2  O5  NAG d 902      10.249  -9.952  30.833  0.00  0.00    -0.349 OA
ATOM      3  C4  NAG d 902       8.036  -8.843  30.765  0.00  0.00     0.180 C 
ATOM      4  C1  NAG d 902       9.637 -11.316  30.768  0.00  0.00     0.282 C 
ATOM      5  C5  NAG d 902       9.422  -8.894  30.147  0.00  0.00     0.179 C 
ATOM      6  C2  NAG d 902       8.245 -11.282  31.412  0.00  0.00     0.171 C 
ENDROOT
BRANCH   1   7
ATOM      7  O3  NAG d 902       6.065 -10.250  31.267  0.00  0.00    -0.348 OA
BRANCH   7   8
ATOM      8  C1  GCD d 901       4.939 -10.633  30.504  0.00  0.00     0.298 C 
ATOM      9  O5  GCD d 901       4.837  -9.618  29.391  0.00  0.00    -0.311 OA
ATOM     10  C5  GCD d 901       3.677  -9.794  28.447  0.00  0.00     0.147 C 
ATOM     11  C4  GCD d 901       2.625 -10.543  28.838  0.00  0.00     0.051 C 
ATOM     12  C3  GCD d 901       2.532 -11.007  30.306  0.00  0.00     0.177 C 
ATOM     13  C2  GCD d 901       3.669 -10.567  31.294  0.00  0.00     0.206 C 
BRANCH  10  14
ATOM     14  C6  GCD d 901       3.874  -9.280  27.043  0.00  0.00     0.233 C 
ATOM     15  O6A GCD d 901       3.258  -9.915  26.105  0.00  0.00    -0.642 OA
ATOM     16  O6B GCD d 901       4.416  -8.115  27.046  0.00  0.00    -0.642 OA
ENDBRANCH  10  14
BRANCH  12  17
ATOM     17  O3  GCD d 901       1.306 -10.923  31.009  0.00  0.00    -0.389 OA
ATOM     18  H   GCD d 901       1.151 -10.005  31.280  0.00  0.00     0.210 HD
ENDBRANCH  12  17
BRANCH  13  19
ATOM     19  O2  GCD d 901       3.710 -11.450  32.461  0.00  0.00    -0.388 OA
ATOM     20  H   GCD d 901       3.855 -12.364  32.170  0.00  0.00     0.210 HD
ENDBRANCH  13  19
ENDBRANCH   7   8
ENDBRANCH   1   7
BRANCH   6  21
ATOM     21  N2  NAG d 902       7.539 -12.626  31.357  0.00  0.00    -0.349 N 
ATOM     22  C7  NAG d 902       6.968 -13.136  32.567  0.00  0.00     0.214 C 
ATOM     23  C8  NAG d 902       6.237 -14.448  32.360  0.00  0.00     0.117 C 
ATOM     24  O7  NAG d 902       7.026 -12.552  33.684  0.00  0.00    -0.274 OA
ATOM     25  H   NAG d 902       7.476 -13.131  30.514  0.00  0.00     0.163 HD
ENDBRANCH   6  21
BRANCH   3  26
ATOM     26  O4  NAG d 902       7.248  -7.839  30.083  0.00  0.00    -0.390 OA
ATOM     27  H   NAG d 902       6.361  -7.803  30.475  0.00  0.00     0.210 HD
ENDBRANCH   3  26
BRANCH   4  28
ATOM     28  O1  NAG d 902      10.452 -12.282  31.421  0.00  0.00    -0.369 OA
ATOM     29  H   NAG d 902      11.329 -12.297  31.008  0.00  0.00     0.212 HD
ENDBRANCH   4  28
BRANCH   5  30
ATOM     30  C6  NAG d 902      10.100  -7.527  30.241  0.00  0.00     0.198 C 
BRANCH  30  31
ATOM     31  O6  NAG d 902      10.291  -7.058  31.603  0.00  0.00    -0.398 OA
ATOM     32  H   NAG d 902      10.724  -6.190  31.588  0.00  0.00     0.209 HD
ENDBRANCH  30  31
ENDBRANCH   5  30
TORSDOF 10
