REMARK  15 active torsions:
REMARK  status: ('A' for Active; 'I' for Inactive)
REMARK    1  A    between atoms: C10_1  and  O15_19 
REMARK    2  A    between atoms: C7_2  and  O3_5 
REMARK    3  A    between atoms: C1_3  and  O3_5 
REMARK    4  A    between atoms: C8_4  and  N14_22 
REMARK    5  A    between atoms: C6_6  and  C2_9 
REMARK    6  A    between atoms: C6_6  and  O11_21 
REMARK    7  A    between atoms: O29_11  and  S20_31 
REMARK    8  A    between atoms: O9_13  and  C4_28 
REMARK    9  A    between atoms: C27_15  and  C19_29 
REMARK   10  A    between atoms: C17_16  and  O25_27 
REMARK   11  A    between atoms: S26_18  and  O18_24 
REMARK   12  A    between atoms: O30_20  and  S20_31 
REMARK   13  A    between atoms: N14_22  and  S20_31 
REMARK   14  A    between atoms: C12_23  and  O18_24 
REMARK   15  A    between atoms: O28_26  and  S20_31 
ROOT
ATOM      1  C10 H3S d 301      18.088   7.539  31.929  0.00  0.00     0.278 C 
ATOM      2  C1  H3S d 301      18.805   7.800  34.808  0.00  0.00     0.186 C 
ATOM      3  C8  H3S d 301      18.096   6.315  32.880  0.00  0.00     0.157 C 
ATOM      4  C2  H3S d 301      18.826   8.998  33.752  0.00  0.00     0.179 C 
ATOM      5  C4  H3S d 301      17.762   6.780  34.314  0.00  0.00     0.173 C 
ATOM      6  O5  H3S d 301      19.057   8.547  32.376  0.00  0.00    -0.350 OA
ENDROOT
BRANCH   2   7
ATOM      7  O3  H3S d 301      18.597   8.289  36.147  0.00  0.00    -0.348 OA
BRANCH   7   8
ATOM      8  C7  H3S d 301      17.264   8.909  36.402  0.00  0.00     0.300 C 
ATOM      9  C12 H3S d 301      16.733   8.584  37.851  0.00  0.00     0.233 C 
ATOM     10  C17 H3S d 301      17.716   9.228  38.919  0.00  0.00     0.179 C 
ATOM     11  C24 H3S d 301      18.259  10.614  38.497  0.00  0.00     0.051 C 
ATOM     12  C19 H3S d 301      18.063  11.117  37.234  0.00  0.00     0.147 C 
ATOM     13  O13 H3S d 301      17.366  10.387  36.287  0.00  0.00    -0.311 OA
BRANCH   9  14
ATOM     14  O18 H3S d 301      15.431   9.210  38.018  0.00  0.00    -0.244 OA
BRANCH  14  15
ATOM     15  S26 H3S d 301      14.238   8.224  37.867  0.00  0.00     0.252 S 
ATOM     16  O31 H3S d 301      13.036   8.967  38.059  0.00  0.00    -0.572 OA
ATOM     17  O32 H3S d 301      14.209   7.648  36.548  0.00  0.00    -0.572 OA
ATOM     18  O33 H3S d 301      14.315   7.026  39.013  0.00  0.00    -0.572 OA
ENDBRANCH  14  15
ENDBRANCH   9  14
BRANCH  10  19
ATOM     19  O25 H3S d 301      18.823   8.342  39.137  0.00  0.00    -0.389 OA
ATOM     20  H   H3S d 301      19.317   8.232  38.309  0.00  0.00     0.210 HD
ENDBRANCH  10  19
BRANCH  12  21
ATOM     21  C27 H3S d 301      18.575  12.445  36.844  0.00  0.00     0.233 C 
ATOM     22  O34 H3S d 301      18.221  12.931  35.793  0.00  0.00    -0.642 OA
ATOM     23  O35 H3S d 301      19.452  13.159  37.661  0.00  0.00    -0.642 OA
ENDBRANCH  12  21
ENDBRANCH   7   8
ENDBRANCH   2   7
BRANCH   4  24
ATOM     24  C6  H3S d 301      19.889  10.059  34.142  0.00  0.00     0.198 C 
BRANCH  24  25
ATOM     25  O11 H3S d 301      21.226   9.567  33.941  0.00  0.00    -0.398 OA
ATOM     26  H   H3S d 301      21.371   8.787  34.500  0.00  0.00     0.209 HD
ENDBRANCH  24  25
ENDBRANCH   4  24
BRANCH   5  27
ATOM     27  O9  H3S d 301      17.748   5.675  35.230  0.00  0.00    -0.391 OA
ATOM     28  H   H3S d 301      17.536   5.996  36.120  0.00  0.00     0.210 HD
ENDBRANCH   5  27
BRANCH   3  29
ATOM     29  N14 H3S d 301      17.113   5.344  32.421  0.00  0.00    -0.210 NA
ATOM     30  H   H3S d 301      16.894   5.575  31.452  0.00  0.00     0.140 HD
BRANCH  29  31
ATOM     31  S20 H3S d 301      17.497   3.745  32.461  0.00  0.00     0.156 S 
BRANCH  31  32
ATOM     32  O29 H3S d 301      16.402   2.992  31.956  0.00  0.00    -0.296 OA
ATOM     33  H   H3S d 301      16.219   3.261  31.042  0.00  0.00     0.231 HD
ENDBRANCH  31  32
BRANCH  31  34
ATOM     34  O30 H3S d 301      18.850   3.490  31.534  0.00  0.00    -0.296 OA
ATOM     35  H   H3S d 301      18.673   3.764  30.621  0.00  0.00     0.231 HD
ENDBRANCH  31  34
BRANCH  31  36
ATOM     36  O28 H3S d 301      17.757   3.342  33.804  0.00  0.00    -0.296 OA
ATOM     37  H   H3S d 301      17.983   2.399  33.821  0.00  0.00     0.231 HD
ENDBRANCH  31  36
ENDBRANCH  29  31
ENDBRANCH   3  29
BRANCH   1  38
ATOM     38  O15 H3S d 301      16.757   8.119  31.881  0.00  0.00    -0.369 OA
ATOM     39  H   H3S d 301      16.502   8.417  32.768  0.00  0.00     0.212 HD
ENDBRANCH   1  38
TORSDOF 15
