REMARK WARNING: 32 MAX_TORS EXCEEDED!!!
REMARK  50 active torsions:
REMARK  status: ('A' for Active; 'I' for Inactive)
REMARK    1 I    between atoms: O3_1  and  C3_97 
REMARK    2 I    between atoms: C2_2  and  N_89 
REMARK    3 I    between atoms: O2_3  and  C2_18 
REMARK    4 I    between atoms: O2_3  and  S_42 
REMARK    5 I    between atoms: O3_4  and  C3_59 
REMARK    6 I    between atoms: C5_5  and  C6_103 
REMARK    7 I    between atoms: N_7  and  C2_88 
REMARK    8 I    between atoms: N_7  and  S1_25 
REMARK    9 I    between atoms: C5_9  and  C6_23 
REMARK   10 A    between atoms: O4_10  and  C1_22 
REMARK   10  A    between atoms: O4_10  and  C1_22 
REMARK   11 I    between atoms: O4_10  and  C4_50 
REMARK   12 I    between atoms: S2_11  and  O6_75 
REMARK   13 I    between atoms: O3_12  and  C3_71 
REMARK   14 I    between atoms: C6_13  and  C5_38 
REMARK   15 I    between atoms: C6_13  and  O6_73 
REMARK   16 I    between atoms: C4_14  and  O1_35 
REMARK   17 I    between atoms: O2S_15  and  S1_25 
REMARK   18 I    between atoms: C4_16  and  O4_29 
REMARK   19 I    between atoms: S_19  and  O2_92 
REMARK   20 I    between atoms: O2_20  and  C2_26 
REMARK   21 I    between atoms: O2_20  and  S_102 
REMARK   22 I    between atoms: C6_21  and  C5_86 
REMARK   23 I    between atoms: C6_21  and  O6_75 
REMARK   24 I    between atoms: C6_23  and  O6_95 
REMARK   25 I    between atoms: S1_25  and  O1S_39 
REMARK   26 I    between atoms: S1_25  and  O3S_93 
REMARK   27 I    between atoms: C6_28  and  C5_45 
REMARK   28 A    between atoms: O4_29  and  C1_84 
REMARK   28  A    between atoms: O4_29  and  C1_84 
REMARK   29 I    between atoms: S1_32  and  N_89 
REMARK   30 I    between atoms: S1_32  and  O1S_74 
REMARK   31 I    between atoms: S1_32  and  O2S_34 
REMARK   32 I    between atoms: S1_32  and  O3S_83 
REMARK   33 A    between atoms: O1_35  and  C1_40 
REMARK   33  A    between atoms: O1_35  and  C1_40 
REMARK   34 I    between atoms: S1_37  and  N_96 
REMARK   35 I    between atoms: S1_37  and  O1S_47 
REMARK   36 I    between atoms: S1_37  and  O2S_78 
REMARK   37 I    between atoms: S1_37  and  O3S_52 
REMARK   38 I    between atoms: C4_41  and  O1_66 
REMARK   39 I    between atoms: C1_43  and  O1_54 
REMARK   40 A    between atoms: O4_44  and  C1_91 
REMARK   40  A    between atoms: O4_44  and  C1_91 
REMARK   41 I    between atoms: O4_44  and  C4_62 
REMARK   42 I    between atoms: O3_49  and  C3_51 
REMARK   43 I    between atoms: O3_55  and  C3_67 
REMARK   44 I    between atoms: C3_56  and  O3_85 
REMARK   45 I    between atoms: C5_57  and  C6_58 
REMARK   46 I    between atoms: C1_63  and  O1_66 
REMARK   47 I    between atoms: C2_68  and  O2_92 
REMARK   48 I    between atoms: O6_73  and  S2_99 
REMARK   49 I    between atoms: C2_80  and  N_96 
REMARK   50 I    between atoms: O6_95  and  S2_98 
ROOT
ATOM      1  C4  SGN d 304     108.041  33.447 119.274  0.00  0.00     0.186 C 
ATOM      2  C5  SGN d 304     108.774  34.776 118.997  0.00  0.00     0.181 C 
ATOM      3  C1  SGN d 304     108.758  35.371 121.362  0.00  0.00     0.282 C 
ATOM      4  O5  SGN d 304     108.402  35.740 120.017  0.00  0.00    -0.349 OA
ATOM      5  C2  SGN d 304     108.098  34.009 121.686  0.00  0.00     0.157 C 
ATOM      6  C3  SGN d 304     108.481  32.951 120.646  0.00  0.00     0.173 C 
ENDROOT
BRANCH   1   7
ATOM      7  O4  SGN d 304     108.414  32.461 118.300  0.00  0.00    -0.348 OA
BRANCH   7   8
ATOM      8  C1  IDS d 303     107.518  32.140 117.252  0.00  0.00     0.294 C 
ATOM      9  C2  IDS d 303     108.038  30.897 116.500  0.00  0.00     0.231 C 
ATOM     10  C3  IDS d 303     107.764  29.547 117.185  0.00  0.00     0.185 C 
ATOM     11  C4  IDS d 303     106.278  29.394 117.582  0.00  0.00     0.195 C 
ATOM     12  C5  IDS d 303     105.816  30.692 118.239  0.00  0.00     0.257 C 
ATOM     13  O5  IDS d 303     106.176  31.938 117.672  0.00  0.00    -0.340 OA
BRANCH   9  14
ATOM     14  O2  IDS d 303     107.466  30.848 115.233  0.00  0.00    -0.244 OA
BRANCH  14  15
ATOM     15  S   IDS d 303     108.352  31.717 113.995  0.00  0.00     0.252 S 
ATOM     16  O2S IDS d 303     107.694  31.508 112.735  0.00  0.00    -0.572 OA
ATOM     17  O3S IDS d 303     109.694  31.189 113.998  0.00  0.00    -0.572 OA
ATOM     18  O1S IDS d 303     108.334  33.100 114.344  0.00  0.00    -0.572 OA
ENDBRANCH  14  15
ENDBRANCH   9  14
BRANCH  10  19
ATOM     19  O3  IDS d 303     108.601  29.380 118.269  0.00  0.00    -0.390 OA
ATOM     20  H   IDS d 303     109.523  29.482 117.985  0.00  0.00     0.210 HD
ENDBRANCH  10  19
BRANCH  11  21
ATOM     21  O1  SGN d 302     105.468  29.240 116.411  0.00  0.00    -0.348 OA
BRANCH  21  22
ATOM     22  C1  SGN d 302     105.155  27.927 115.947  0.00  0.00     0.282 C 
ATOM     23  O5  SGN d 302     104.136  27.284 116.758  0.00  0.00    -0.349 OA
ATOM     24  C5  SGN d 302     102.858  27.973 116.793  0.00  0.00     0.181 C 
ATOM     25  C4  SGN d 302     102.322  28.099 115.374  0.00  0.00     0.186 C 
ATOM     26  C3  SGN d 302     103.314  28.875 114.531  0.00  0.00     0.173 C 
ATOM     27  C2  SGN d 302     104.608  28.077 114.525  0.00  0.00     0.157 C 
BRANCH  24  28
ATOM     28  C6  SGN d 302     101.853  27.216 117.650  0.00  0.00     0.227 C 
BRANCH  28  29
ATOM     29  O6  SGN d 302     102.397  26.010 118.138  0.00  0.00    -0.254 OA
BRANCH  29  30
ATOM     30  S2  SGN d 302     101.889  25.536 119.751  0.00  0.00     0.251 S 
ATOM     31  O4S SGN d 302     102.784  26.112 120.715  0.00  0.00    -0.572 OA
ATOM     32  O5S SGN d 302     101.915  24.101 119.829  0.00  0.00    -0.572 OA
ATOM     33  O6S SGN d 302     100.540  25.998 119.966  0.00  0.00    -0.572 OA
ENDBRANCH  29  30
ENDBRANCH  28  29
ENDBRANCH  24  28
BRANCH  25  34
ATOM     34  O4  SGN d 302     101.113  28.799 115.419  0.00  0.00    -0.348 OA
BRANCH  34  35
ATOM     35  C1  UAP d 301     100.021  28.298 114.703  0.00  0.00     0.294 C 
ATOM     36  O5  UAP d 301      99.988  28.825 113.381  0.00  0.00    -0.343 OA
ATOM     37  C5  UAP d 301      99.437  30.109 113.148  0.00  0.00     0.228 C 
ATOM     38  C4  UAP d 301      98.655  30.935 114.171  0.00  0.00     0.077 C 
ATOM     39  C3  UAP d 301      98.370  30.176 115.497  0.00  0.00     0.156 C 
ATOM     40  C2  UAP d 301      98.807  28.703 115.513  0.00  0.00     0.228 C 
BRANCH  37  41
ATOM     41  C6  UAP d 301      99.491  30.709 111.748  0.00  0.00     0.203 C 
ATOM     42  O61 UAP d 301      98.970  31.820 111.522  0.00  0.00    -0.646 OA
ATOM     43  O62 UAP d 301     100.047  30.013 110.871  0.00  0.00    -0.646 OA
ENDBRANCH  37  41
BRANCH  39  44
ATOM     44  O3  UAP d 301      99.018  30.808 116.556  0.00  0.00    -0.393 OA
ATOM     45  H   UAP d 301      98.765  31.744 116.577  0.00  0.00     0.210 HD
ENDBRANCH  39  44
BRANCH  40  46
ATOM     46  O2  UAP d 301      97.716  27.947 115.111  0.00  0.00    -0.244 OA
BRANCH  46  47
ATOM     47  S   UAP d 301      96.936  27.106 116.421  0.00  0.00     0.252 S 
ATOM     48  O1S UAP d 301      95.554  27.086 116.136  0.00  0.00    -0.572 OA
ATOM     49  O2S UAP d 301      97.176  27.801 117.662  0.00  0.00    -0.572 OA
ATOM     50  O3S UAP d 301      97.489  25.787 116.422  0.00  0.00    -0.572 OA
ENDBRANCH  46  47
ENDBRANCH  40  46
ENDBRANCH  34  35
ENDBRANCH  25  34
BRANCH  26  51
ATOM     51  O3  SGN d 302     102.818  28.997 113.210  0.00  0.00    -0.391 OA
ATOM     52  H   SGN d 302     101.993  29.507 113.220  0.00  0.00     0.210 HD
ENDBRANCH  26  51
BRANCH  27  53
ATOM     53  N   SGN d 302     105.565  28.873 113.795  0.00  0.00    -0.210 NA
ATOM     54  H   SGN d 302     106.297  29.143 114.452  0.00  0.00     0.140 HD
BRANCH  53  55
ATOM     55  S1  SGN d 302     106.362  28.149 112.392  0.00  0.00     0.156 S 
BRANCH  55  56
ATOM     56  O2S SGN d 302     106.119  26.740 112.444  0.00  0.00    -0.296 OA
ATOM     57  H   SGN d 302     105.164  26.575 112.398  0.00  0.00     0.231 HD
ENDBRANCH  55  56
BRANCH  55  58
ATOM     58  O1S SGN d 302     105.804  28.719 111.191  0.00  0.00    -0.296 OA
ATOM     59  H   SGN d 302     104.850  28.544 111.163  0.00  0.00     0.231 HD
ENDBRANCH  55  58
BRANCH  55  60
ATOM     60  O3S SGN d 302     107.781  28.395 112.461  0.00  0.00    -0.296 OA
ATOM     61  H   SGN d 302     108.138  28.005 113.274  0.00  0.00     0.231 HD
ENDBRANCH  55  60
ENDBRANCH  53  55
ENDBRANCH  27  53
ENDBRANCH  21  22
ENDBRANCH  11  21
BRANCH  12  62
ATOM     62  C6  IDS d 303     104.419  30.583 118.781  0.00  0.00     0.206 C 
ATOM     63  O61 IDS d 303     104.249  30.076 119.892  0.00  0.00    -0.646 OA
ATOM     64  O62 IDS d 303     103.540  31.207 118.156  0.00  0.00    -0.646 OA
ENDBRANCH  12  62
ENDBRANCH   7   8
ENDBRANCH   1   7
BRANCH   6  65
ATOM     65  O3  SGN d 304     107.834  31.733 120.961  0.00  0.00    -0.391 OA
ATOM     66  H   SGN d 304     108.074  31.060 120.305  0.00  0.00     0.210 HD
ENDBRANCH   6  65
BRANCH   2  67
ATOM     67  C6  SGN d 304     108.378  35.353 117.661  0.00  0.00     0.227 C 
BRANCH  67  68
ATOM     68  O6  SGN d 304     106.959  35.487 117.673  0.00  0.00    -0.254 OA
BRANCH  68  69
ATOM     69  S2  SGN d 304     106.177  36.048 116.214  0.00  0.00     0.251 S 
ATOM     70  O4S SGN d 304     106.516  37.422 116.001  0.00  0.00    -0.572 OA
ATOM     71  O5S SGN d 304     104.756  35.906 116.395  0.00  0.00    -0.572 OA
ATOM     72  O6S SGN d 304     106.626  35.226 115.113  0.00  0.00    -0.572 OA
ENDBRANCH  68  69
ENDBRANCH  67  68
ENDBRANCH   2  67
BRANCH   5  73
ATOM     73  N   SGN d 304     108.671  33.544 122.925  0.00  0.00    -0.210 NA
ATOM     74  H   SGN d 304     108.486  32.542 122.980  0.00  0.00     0.140 HD
BRANCH  73  75
ATOM     75  S1  SGN d 304     108.136  34.247 124.446  0.00  0.00     0.156 S 
BRANCH  75  76
ATOM     76  O1S SGN d 304     108.274  35.675 124.423  0.00  0.00    -0.296 OA
ATOM     77  H   SGN d 304     109.204  35.908 124.273  0.00  0.00     0.231 HD
ENDBRANCH  75  76
BRANCH  75  78
ATOM     78  O2S SGN d 304     108.954  33.683 125.465  0.00  0.00    -0.296 OA
ATOM     79  H   SGN d 304     109.880  33.926 125.308  0.00  0.00     0.231 HD
ENDBRANCH  75  78
BRANCH  75  80
ATOM     80  O3S SGN d 304     106.770  33.896 124.667  0.00  0.00    -0.296 OA
ATOM     81  H   SGN d 304     106.219  34.284 123.969  0.00  0.00     0.231 HD
ENDBRANCH  75  80
ENDBRANCH  73  75
ENDBRANCH   5  73
BRANCH   3  82
ATOM     82  O1  SGN d 304     110.177  35.272 121.513  0.00  0.00    -0.348 OA
BRANCH  82  83
ATOM     83  C4  IDS d 305     110.881  36.447 121.934  0.00  0.00     0.195 C 
ATOM     84  C3  IDS d 305     111.607  36.191 123.269  0.00  0.00     0.185 C 
ATOM     85  C2  IDS d 305     112.983  35.513 123.127  0.00  0.00     0.231 C 
ATOM     86  C1  IDS d 305     113.823  35.637 121.828  0.00  0.00     0.294 C 
ATOM     87  O5  IDS d 305     113.037  35.994 120.689  0.00  0.00    -0.340 OA
ATOM     88  C5  IDS d 305     111.894  36.795 120.853  0.00  0.00     0.257 C 
BRANCH  84  89
ATOM     89  O3  IDS d 305     111.771  37.366 123.958  0.00  0.00    -0.390 OA
ATOM     90  H   IDS d 305     112.347  37.960 123.452  0.00  0.00     0.210 HD
ENDBRANCH  84  89
BRANCH  85  91
ATOM     91  O2  IDS d 305     113.103  34.288 123.838  0.00  0.00    -0.244 OA
BRANCH  91  92
ATOM     92  S   IDS d 305     112.594  32.792 123.038  0.00  0.00     0.252 S 
ATOM     93  O1S IDS d 305     113.325  32.639 121.831  0.00  0.00    -0.572 OA
ATOM     94  O2S IDS d 305     111.202  32.849 122.777  0.00  0.00    -0.572 OA
ATOM     95  O3S IDS d 305     112.905  31.736 123.930  0.00  0.00    -0.572 OA
ENDBRANCH  91  92
ENDBRANCH  85  91
BRANCH  86  96
ATOM     96  O4  SGN d 306     114.946  36.492 122.082  0.00  0.00    -0.348 OA
BRANCH  96  97
ATOM     97  C4  SGN d 306     115.909  36.723 121.037  0.00  0.00     0.186 C 
ATOM     98  C5  SGN d 306     117.170  35.861 121.263  0.00  0.00     0.181 C 
ATOM     99  O5  SGN d 306     118.136  36.144 120.206  0.00  0.00    -0.350 OA
ATOM    100  C1  SGN d 306     118.590  37.514 120.116  0.00  0.00     0.278 C 
ATOM    101  C2  SGN d 306     117.364  38.431 119.981  0.00  0.00     0.157 C 
ATOM    102  C3  SGN d 306     116.348  38.190 121.087  0.00  0.00     0.173 C 
BRANCH  98 103
ATOM    103  C6  SGN d 306     116.835  34.380 121.246  0.00  0.00     0.227 C 
BRANCH 103 104
ATOM    104  O6  SGN d 306     117.556  33.718 120.230  0.00  0.00    -0.254 OA
BRANCH 104 105
ATOM    105  S2  SGN d 306     117.365  31.974 120.164  0.00  0.00     0.251 S 
ATOM    106  O6S SGN d 306     117.385  31.467 121.513  0.00  0.00    -0.572 OA
ATOM    107  O4S SGN d 306     118.432  31.404 119.391  0.00  0.00    -0.572 OA
ATOM    108  O5S SGN d 306     116.092  31.698 119.560  0.00  0.00    -0.572 OA
ENDBRANCH 104 105
ENDBRANCH 103 104
ENDBRANCH  98 103
BRANCH 100 109
ATOM    109  O1  SGN d 306     119.344  37.901 121.260  0.00  0.00    -0.369 OA
ATOM    110  H   SGN d 306     118.788  37.832 122.052  0.00  0.00     0.212 HD
ENDBRANCH 100 109
BRANCH 101 111
ATOM    111  N   SGN d 306     117.822  39.779 120.171  0.00  0.00    -0.210 NA
ATOM    112  H   SGN d 306     118.837  39.746 120.267  0.00  0.00     0.140 HD
BRANCH 111 113
ATOM    113  S1  SGN d 306     117.449  40.946 118.910  0.00  0.00     0.156 S 
BRANCH 113 114
ATOM    114  O1S SGN d 306     116.050  40.865 118.573  0.00  0.00    -0.296 OA
ATOM    115  H   SGN d 306     115.844  39.971 118.258  0.00  0.00     0.231 HD
ENDBRANCH 113 114
BRANCH 113 116
ATOM    116  O2S SGN d 306     118.258  40.608 117.780  0.00  0.00    -0.296 OA
ATOM    117  H   SGN d 306     118.030  39.716 117.475  0.00  0.00     0.231 HD
ENDBRANCH 113 116
BRANCH 113 118
ATOM    118  O3S SGN d 306     117.772  42.270 119.380  0.00  0.00    -0.296 OA
ATOM    119  H   SGN d 306     117.217  42.486 120.145  0.00  0.00     0.231 HD
ENDBRANCH 113 118
ENDBRANCH 111 113
ENDBRANCH 101 111
BRANCH 102 120
ATOM    120  O3  SGN d 306     115.244  39.053 120.887  0.00  0.00    -0.391 OA
ATOM    121  H   SGN d 306     115.544  39.975 120.922  0.00  0.00     0.210 HD
ENDBRANCH 102 120
ENDBRANCH  96  97
ENDBRANCH  86  96
BRANCH  88 122
ATOM    122  C6  IDS d 305     111.251  37.386 119.598  0.00  0.00     0.206 C 
ATOM    123  O61 IDS d 305     110.312  38.190 119.723  0.00  0.00    -0.646 OA
ATOM    124  O62 IDS d 305     111.545  36.840 118.510  0.00  0.00    -0.646 OA
ENDBRANCH  88 122
ENDBRANCH  82  83
ENDBRANCH   3  82
TORSDOF 50
