REMARK  0 active torsions:
REMARK  status: ('A' for Active; 'I' for Inactive)
REMARK       I    between atoms: O3_2  and  C3_21 
REMARK       I    between atoms: O3_2  and  S12_10 
REMARK       I    between atoms: C6_3  and  C5_31 
REMARK       I    between atoms: C6_3  and  O62_9 
REMARK       I    between atoms: C4_4  and  O4_37 
REMARK       I    between atoms: O1_5  and  C1_26 
REMARK       I    between atoms: S12_10  and  O22_30 
REMARK       I    between atoms: C4_11  and  O4_16 
REMARK       I    between atoms: S1_14  and  N_18 
REMARK       I    between atoms: C2_15  and  N_18 
REMARK       I    between atoms: O4_16  and  C1_23 
REMARK       I    between atoms: C2_17  and  O2_33 
REMARK       I    between atoms: O3_20  and  C3_25 
REMARK       I    between atoms: S_27  and  O2_33 
REMARK       I    between atoms: O6_28  and  C6_32 
REMARK       I    between atoms: C6_32  and  C5_34 
ROOT
ATOM      1  O3S GNX d 141      23.962  -8.582 -21.541  0.00  0.00    -0.582 OA
ATOM      2  O3  GNX d 141      27.830  -8.086 -24.542  0.00  0.00    -0.254 OA
ATOM      3  C4  GNX d 141      28.300  -5.845 -23.834  0.00  0.00     0.181 C 
ATOM      4  O32 GNX d 141      28.556 -10.055 -24.290  0.00  0.00    -0.579 OA
ATOM      5  S12 GNX d 141      28.659  -8.947 -25.245  0.00  0.00     0.240 S 
ATOM      6  O1S GNX d 141      24.709  -9.288 -23.731  0.00  0.00    -0.582 OA
ATOM      7  S1  GNX d 141      24.972  -9.320 -22.295  0.00  0.00     0.183 S 
ATOM      8  C2  GNX d 141      26.591  -7.265 -22.661  0.00  0.00     0.162 C 
ATOM      9  N   GNX d 141      26.364  -8.566 -22.063  0.00  0.00    -0.189 NA
ATOM     10  O2S GNX d 141      25.140 -10.680 -21.792  0.00  0.00    -0.582 OA
ATOM     11  C3  GNX d 141      27.922  -7.258 -23.404  0.00  0.00     0.199 C 
ATOM     12  C1  GNX d 141      26.561  -6.184 -21.587  0.00  0.00     0.282 C 
ATOM     13  O6  GNX d 141      27.507  -2.558 -22.554  0.00  0.00    -0.398 OA
ATOM     14  O22 GNX d 141      30.087  -8.756 -25.502  0.00  0.00    -0.274 OA
ATOM     15  C6  GNX d 141      28.447  -3.439 -23.128  0.00  0.00     0.198 C 
ATOM     16  C5  GNX d 141      28.148  -4.864 -22.678  0.00  0.00     0.179 C 
ATOM     17  O12 GNX d 141      28.025  -9.391 -26.532  0.00  0.00    -0.579 OA
ATOM     18  O5  GNX d 141      26.833  -4.931 -22.173  0.00  0.00    -0.349 OA
ATOM     19  O4  GNX d 141      29.635  -5.833 -24.288  0.00  0.00    -0.390 OA
ATOM     20  H   GNX d 141      27.096  -9.184 -22.415  0.00  0.00     0.143 HD
ATOM     21  H   GNX d 141      27.697  -1.651 -22.840  0.00  0.00     0.209 HD
ATOM     22  H   GNX d 141      30.527  -8.468 -24.687  0.00  0.00     0.234 HD
ATOM     23  H   GNX d 141      30.224  -6.107 -23.568  0.00  0.00     0.210 HD
ATOM     24  C6  IDY d 142      28.910  -4.865 -19.145  0.00  0.00     0.172 C 
ATOM     25  O1  IDY d 142      28.813  -8.719 -16.131  0.00  0.00    -0.363 OA
ATOM     26  OS3 IDY d 142      29.354 -11.127 -18.258  0.00  0.00    -0.572 OA
ATOM     27  OS2 IDY d 142      27.349 -11.995 -19.341  0.00  0.00    -0.572 OA
ATOM     28  O62 IDY d 142      29.719  -5.266 -20.031  0.00  0.00    -0.774 OA
ATOM     29  C4  IDY d 142      26.917  -6.341 -19.133  0.00  0.00     0.195 C 
ATOM     30  OS1 IDY d 142      29.189 -11.279 -20.668  0.00  0.00    -0.572 OA
ATOM     31  O4  IDY d 142      27.535  -6.467 -20.608  0.00  0.00    -0.348 OA
ATOM     32  C2  IDY d 142      27.391  -8.784 -18.395  0.00  0.00     0.231 C 
ATOM     33  O3  IDY d 142      25.485  -7.556 -17.585  0.00  0.00    -0.390 OA
ATOM     34  O61 IDY d 142      28.772  -3.592 -18.893  0.00  0.00    -0.648 OA
ATOM     35  O5  IDY d 142      29.060  -6.928 -18.095  0.00  0.00    -0.340 OA
ATOM     36  C3  IDY d 142      26.347  -7.711 -18.731  0.00  0.00     0.185 C 
ATOM     37  C1  IDY d 142      28.539  -8.163 -17.596  0.00  0.00     0.293 C 
ATOM     38  S   IDY d 142      28.425 -10.982 -19.438  0.00  0.00     0.252 S 
ATOM     39  C7  IDY d 142      28.860  -8.523 -15.176  0.00  0.00     0.204 C 
ATOM     40  C5  IDY d 142      28.135  -5.867 -18.331  0.00  0.00     0.253 C 
ATOM     41  O2  IDY d 142      27.837  -9.541 -19.544  0.00  0.00    -0.244 OA
ATOM     42  H   IDY d 142      29.809  -6.183 -20.203  0.00  0.00     0.167 HD
ATOM     43  H   IDY d 142      24.815  -6.881 -17.774  0.00  0.00     0.210 HD
ENDROOT
TORSDOF 16
