REMARK 27 active torsions
REMARK    1  A    between atoms: atom4  and  atom_
REMARK    2  A    between atoms: atom7  and  atom_
REMARK    3  A    between atoms: atom9  and  atom_
REMARK    4  A    between atoms: atom1  and  atom1
REMARK    5  A    between atoms: atom2  and  atom1
REMARK    6  A    between atoms: atom2  and  atom5
REMARK    7  A    between atoms: atom3  and  atom6
REMARK    8  A    between atoms: atom3  and  atom8
REMARK    9  A    between atoms: atom2  and  atom6
REMARK    10  A    between atoms: atom5  and  atom4
REMARK    11  A    between atoms: atom2  and  atom_
REMARK    12  A    between atoms: atom6  and  atom6
REMARK    13  A    between atoms: atom6  and  atom_
REMARK    14  A    between atoms: atom7  and  atom8
REMARK    15  A    between atoms: atom8  and  atom1
REMARK    16  A    between atoms: atom8  and  atom2
REMARK    17  A    between atoms: atom9  and  atom2
REMARK    18  A    between atoms: atom9  and  atom8
REMARK    19  A    between atoms: atom1  and  atom0
REMARK    20  A    between atoms: atom2  and  atom8
REMARK    21  A    between atoms: atom5  and  atom0
REMARK    22  A    between atoms: atom6  and  atom0
REMARK    23  A    between atoms: atom1  and  atom_
REMARK    24  A    between atoms: atom3  and  atom_
REMARK    25  A    between atoms: atom7  and  atom2
REMARK    26  A    between atoms: atom1  and  atom0
REMARK    27  A    between atoms: atom1  and  atom1
ROOT
ATOM      1  C3  SGN d 304       1.031   3.031  54.073  0.00  0.00     0.173 C 
ATOM      2  C5  SGN d 304       0.173   0.843  53.307  0.00  0.00     0.181 C 
ATOM      3  C2  SGN d 304       0.514   2.695  55.441  0.00  0.00     0.160 C 
ATOM      4  C4  SGN d 304       1.400   1.719  53.394  0.00  0.00     0.186 C 
ATOM      5  O5  SGN d 304      -0.268   0.593  54.634  0.00  0.00    -0.349 OA
ATOM      6  C1  SGN d 304      -0.663   1.762  55.335  0.00  0.00     0.282 C 
ENDROOT
BRANCH   1  64
ATOM     64  O3  SGN d 304       2.153   3.874  54.220  0.00  0.00    -0.391 OA
ATOM     65  H   SGN d 304       2.824   3.428  54.760  0.00  0.00     0.210 HD
ENDBRANCH   1  64
BRANCH   2  66
ATOM     66  C6  SGN d 304       0.426  -0.448  52.543  0.00  0.00     0.227 C 
BRANCH  66  67
ATOM     67  O6  SGN d 304       0.190  -1.585  53.377  0.00  0.00    -0.254 OA
ATOM     68  S2  SGN d 304       1.531  -2.291  54.307  0.00  0.00     0.251 S 
ATOM     69  O4S SGN d 304       2.551  -2.694  53.390  0.00  0.00    -0.572 OA
ATOM     70  O6S SGN d 304       2.057  -1.318  55.229  0.00  0.00    -0.572 OA
ATOM     71  O5S SGN d 304       1.057  -3.426  55.039  0.00  0.00    -0.572 OA
ENDBRANCH  66  67
ENDBRANCH   2  66
BRANCH   3  72
ATOM     72  N   SGN d 304       0.042   3.913  56.033  0.00  0.00    -0.189 NA
ATOM     73  H   SGN d 304      -0.954   3.986  55.827  0.00  0.00     0.143 HD
BRANCH  72  74
ATOM     74  S1  SGN d 304       0.237   4.103  57.783  0.00  0.00     0.183 S 
ATOM     75  O2S SGN d 304       0.206   5.512  58.022  0.00  0.00    -0.582 OA
ATOM     76  O3S SGN d 304       1.508   3.558  58.185  0.00  0.00    -0.582 OA
ATOM     77  O1S SGN d 304      -0.816   3.441  58.502  0.00  0.00    -0.582 OA
ENDBRANCH  72  74
ENDBRANCH   3  72
BRANCH   4   7
ATOM      7  O4  SGN d 304       1.873   1.969  52.085  0.00  0.00    -0.348 OA
BRANCH   7   8
ATOM      8  C1  IDS d 303       2.961   1.134  51.722  0.00  0.00     0.294 C 
ATOM      9  C2  IDS d 303       3.323   1.294  50.245  0.00  0.00     0.231 C 
ATOM     10  C3  IDS d 303       4.083   2.545  49.919  0.00  0.00     0.185 C 
ATOM     11  C4  IDS d 303       5.269   2.694  50.894  0.00  0.00     0.195 C 
ATOM     12  C5  IDS d 303       4.682   2.647  52.298  0.00  0.00     0.253 C 
ATOM     13  O5  IDS d 303       4.116   1.353  52.541  0.00  0.00    -0.340 OA
ATOM     19  O3  IDS d 303       3.208   3.617  50.018  0.00  0.00    -0.390 OA
ATOM     20  H   IDS d 303       3.679   4.439  49.811  0.00  0.00     0.210 HD
ATOM     60  C6  IDS d 303       5.667   2.963  53.367  0.00  0.00     0.172 C 
ATOM     61  O62 IDS d 303       5.615   2.272  54.362  0.00  0.00    -0.648 OA
BRANCH   9  14
ATOM     14  O2  IDS d 303       4.027   0.204  49.849  0.00  0.00    -0.244 OA
ATOM     15  S   IDS d 303       3.037  -0.958  49.077  0.00  0.00     0.252 S 
ATOM     16  O1S IDS d 303       3.835  -2.099  48.855  0.00  0.00    -0.572 OA
ATOM     17  O3S IDS d 303       1.846  -1.263  49.778  0.00  0.00    -0.572 OA
ATOM     18  O2S IDS d 303       2.617  -0.345  47.873  0.00  0.00    -0.572 OA
ENDBRANCH   9  14
BRANCH  11  21
ATOM     21  O1  SGN d 302       6.151   1.579  50.786  0.00  0.00    -0.348 OA
BRANCH  21  22
ATOM     22  C1  SGN d 302       7.494   1.847  50.388  0.00  0.00     0.282 C 
ATOM     23  C2  SGN d 302       8.008   0.659  49.577  0.00  0.00     0.160 C 
ATOM     24  C3  SGN d 302       8.171  -0.581  50.431  0.00  0.00     0.173 C 
ATOM     25  C4  SGN d 302       9.068  -0.313  51.603  0.00  0.00     0.186 C 
ATOM     26  C5  SGN d 302       8.458   0.874  52.348  0.00  0.00     0.181 C 
ATOM     27  O5  SGN d 302       8.369   2.017  51.505  0.00  0.00    -0.349 OA
ATOM     28  N   SGN d 302       6.945   0.298  48.688  0.00  0.00    -0.189 NA
ATOM     29  H   SGN d 302       6.069   0.411  49.197  0.00  0.00     0.143 HD
ATOM     34  O3  SGN d 302       8.742  -1.623  49.674  0.00  0.00    -0.391 OA
ATOM     35  H   SGN d 302       9.622  -1.355  49.367  0.00  0.00     0.210 HD
BRANCH  25  36
ATOM     36  O4  SGN d 302       8.929  -1.478  52.417  0.00  0.00    -0.348 OA
BRANCH  36  37
ATOM     37  C1  UAP d 301      10.124  -2.097  52.886  0.00  0.00     0.300 C 
ATOM     38  C2  UAP d 301       9.748  -3.216  53.834  0.00  0.00     0.233 C 
ATOM     39  C3  UAP d 301       8.988  -4.308  53.124  0.00  0.00     0.179 C 
ATOM     40  C4  UAP d 301       9.528  -4.606  51.810  0.00  0.00     0.051 C 
ATOM     41  C5  UAP d 301      10.494  -3.837  51.265  0.00  0.00     0.144 C 
ATOM     42  O5  UAP d 301      10.908  -2.670  51.849  0.00  0.00    -0.311 OA
ATOM     48  O3  UAP d 301       7.644  -3.987  53.116  0.00  0.00    -0.389 OA
ATOM     49  H   UAP d 301       7.513  -3.156  52.633  0.00  0.00     0.210 HD
ATOM     50  C6  UAP d 301      11.258  -4.330  50.245  0.00  0.00     0.200 C 
ATOM     51  O61 UAP d 301      11.010  -5.451  49.781  0.00  0.00    -0.645 OA
BRANCH  38  43
ATOM     43  O2  UAP d 301      10.960  -3.774  54.250  0.00  0.00    -0.244 OA
ATOM     44  S   UAP d 301      11.380  -3.620  55.935  0.00  0.00     0.252 S 
ATOM     45  O2S UAP d 301      12.699  -4.110  56.140  0.00  0.00    -0.572 OA
ATOM     46  O1S UAP d 301      11.351  -2.232  56.234  0.00  0.00    -0.572 OA
ATOM     47  O3S UAP d 301      10.395  -4.350  56.680  0.00  0.00    -0.572 OA
ENDBRANCH  38  43
BRANCH  50  52
ATOM     52  O62 UAP d 301      12.294  -3.721  49.890  0.00  0.00    -0.771 OA
ENDBRANCH  50  52
ENDBRANCH  36  37
ENDBRANCH  25  36
BRANCH  26  54
ATOM     54  C6  SGN d 302       9.312   1.248  53.503  0.00  0.00     0.227 C 
BRANCH  54  55
ATOM     55  O6  SGN d 302      10.627   1.015  53.100  0.00  0.00    -0.254 OA
ATOM     56  S2  SGN d 302      11.769   2.013  53.898  0.00  0.00     0.251 S 
ATOM     57  O4S SGN d 302      12.942   2.098  53.107  0.00  0.00    -0.572 OA
ATOM     58  O5S SGN d 302      12.072   1.396  55.139  0.00  0.00    -0.572 OA
ATOM     59  O6S SGN d 302      11.137   3.281  54.146  0.00  0.00    -0.572 OA
ENDBRANCH  54  55
ENDBRANCH  26  54
BRANCH  28  30
ATOM     30  S1  SGN d 302       6.805   1.192  47.206  0.00  0.00     0.183 S 
ATOM     31  O3S SGN d 302       6.464   2.531  47.508  0.00  0.00    -0.582 OA
ATOM     32  O1S SGN d 302       5.817   0.577  46.385  0.00  0.00    -0.582 OA
ATOM     33  O2S SGN d 302       8.053   1.187  46.578  0.00  0.00    -0.582 OA
ENDBRANCH  28  30
ENDBRANCH  21  22
ENDBRANCH  11  21
BRANCH  60  62
ATOM     62  O61 IDS d 303       6.321   3.993  53.287  0.00  0.00    -0.774 OA
ENDBRANCH  60  62
ENDBRANCH   7   8
ENDBRANCH   4   7
BRANCH   6  78
ATOM     78  O1  SGN d 304      -1.664   2.453  54.615  0.00  0.00    -0.348 OA
BRANCH  78  79
ATOM     79  C4  IDS d 305      -2.962   1.932  54.842  0.00  0.00     0.195 C 
ATOM     80  C3  IDS d 305      -3.466   2.502  56.155  0.00  0.00     0.185 C 
ATOM     81  C2  IDS d 305      -4.942   2.322  56.136  0.00  0.00     0.231 C 
ATOM     82  C1  IDS d 305      -5.539   3.261  55.077  0.00  0.00     0.294 C 
ATOM     83  O5  IDS d 305      -4.596   3.498  54.054  0.00  0.00    -0.340 OA
ATOM     84  C5  IDS d 305      -3.926   2.302  53.696  0.00  0.00     0.253 C 
ATOM     85  O3  IDS d 305      -2.942   1.756  57.205  0.00  0.00    -0.390 OA
ATOM     86  H   IDS d 305      -3.261   2.116  58.048  0.00  0.00     0.210 HD
ATOM    115  C6  IDS d 305      -3.143   2.597  52.424  0.00  0.00     0.172 C 
ATOM    116  O61 IDS d 305      -2.681   1.612  51.823  0.00  0.00    -0.648 OA
BRANCH  81  87
ATOM     87  O2  IDS d 305      -5.393   2.682  57.419  0.00  0.00    -0.244 OA
ATOM     88  S   IDS d 305      -6.733   1.727  58.045  0.00  0.00     0.252 S 
ATOM     89  O1S IDS d 305      -6.560   1.531  59.468  0.00  0.00    -0.572 OA
ATOM     90  O2S IDS d 305      -6.657   0.463  57.371  0.00  0.00    -0.572 OA
ATOM     91  O3S IDS d 305      -8.005   2.373  57.761  0.00  0.00    -0.572 OA
ENDBRANCH  81  87
BRANCH  82  92
ATOM     92  O4  SGN d 306      -6.631   2.636  54.438  0.00  0.00    -0.348 OA
BRANCH  92  93
ATOM     93  C4  SGN d 306      -7.417   3.540  53.664  0.00  0.00     0.186 C 
ATOM     94  C3  SGN d 306      -7.907   2.817  52.419  0.00  0.00     0.173 C 
ATOM     95  C2  SGN d 306      -8.923   3.686  51.686  0.00  0.00     0.160 C 
ATOM     96  C1  SGN d 306     -10.059   4.130  52.604  0.00  0.00     0.278 C 
ATOM     97  O5  SGN d 306      -9.499   4.790  53.732  0.00  0.00    -0.350 OA
ATOM     98  C5  SGN d 306      -8.594   3.981  54.519  0.00  0.00     0.181 C 
ATOM     99  O3  SGN d 306      -6.798   2.693  51.539  0.00  0.00    -0.391 OA
ATOM    100  H   SGN d 306      -7.076   2.234  50.731  0.00  0.00     0.210 HD
ATOM    101  N   SGN d 306      -9.504   2.850  50.656  0.00  0.00    -0.189 NA
ATOM    102  H   SGN d 306     -10.295   2.364  51.077  0.00  0.00     0.143 HD
ATOM    107  O1  SGN d 306     -10.822   2.997  52.993  0.00  0.00    -0.369 OA
ATOM    108  H   SGN d 306     -11.190   2.569  52.204  0.00  0.00     0.212 HD
BRANCH  98  109
ATOM    109  C6  SGN d 306      -8.060   4.822  55.666  0.00  0.00     0.227 C 
BRANCH  109  110
ATOM    110  O6  SGN d 306      -7.062   5.709  55.165  0.00  0.00    -0.254 OA
ATOM    111  S2  SGN d 306      -6.589   7.130  56.110  0.00  0.00     0.251 S 
ATOM    112  O4S SGN d 306      -5.342   6.897  56.783  0.00  0.00    -0.572 OA
ATOM    113  O6S SGN d 306      -6.432   8.229  55.195  0.00  0.00    -0.572 OA
ATOM    114  O5S SGN d 306      -7.641   7.430  57.050  0.00  0.00    -0.572 OA
ENDBRANCH  109  110
ENDBRANCH  98  109
BRANCH  101  103
ATOM    103  S1  SGN d 306     -10.090   3.601  49.174  0.00  0.00     0.183 S 
ATOM    104  O2S SGN d 306      -8.971   4.223  48.526  0.00  0.00    -0.582 OA
ATOM    105  O1S SGN d 306     -10.637   2.562  48.340  0.00  0.00    -0.582 OA
ATOM    106  O3S SGN d 306     -11.111   4.571  49.475  0.00  0.00    -0.582 OA
ENDBRANCH  101  103
ENDBRANCH  92  93
ENDBRANCH  82  92
BRANCH  115  117
ATOM    117  O62 IDS d 305      -2.964   3.798  52.092  0.00  0.00    -0.774 OA
ENDBRANCH  115  117
ENDBRANCH  78  79
ENDBRANCH   6  78
TORSDOF 27
