REMARK  0 active torsions:
REMARK  status: ('A' for Active; 'I' for Inactive)
REMARK       I    between atoms: N_1  and  C2_57 
REMARK       I    between atoms: N_1  and  S1_60 
REMARK       I    between atoms: C5_2  and  C6_24 
REMARK       I    between atoms: C4_4  and  O4_14 
REMARK       I    between atoms: O3_5  and  C3_61 
REMARK       I    between atoms: C5_6  and  C6_37 
REMARK       I    between atoms: S_7  and  O2_53 
REMARK       I    between atoms: C2_8  and  O2_53 
REMARK       I    between atoms: C1_10  and  O1_34 
REMARK       I    between atoms: C3_11  and  O3_50 
REMARK       I    between atoms: C2_12  and  O2_28 
REMARK       I    between atoms: O6_13  and  C6_27 
REMARK       I    between atoms: O6_13  and  S2_66 
REMARK       I    between atoms: O4_14  and  C1_43 
REMARK       I    between atoms: C5_15  and  C6_49 
REMARK       I    between atoms: C3_16  and  O3_59 
REMARK       I    between atoms: C2_17  and  N_30 
REMARK       I    between atoms: C4_18  and  O1_34 
REMARK       I    between atoms: C1_23  and  O4_35 
REMARK       I    between atoms: C6_24  and  O6_38 
REMARK       I    between atoms: S1_25  and  N_30 
REMARK       I    between atoms: C6_27  and  C5_55 
REMARK       I    between atoms: O2_28  and  S_58 
REMARK       I    between atoms: O1_31  and  C1_68 
REMARK       I    between atoms: S2_32  and  O6_38 
REMARK       I    between atoms: O4_35  and  C4_51 
REMARK       I    between atoms: C6_37  and  O61_41 
REMARK       I    between atoms: C3_44  and  O3_46 
REMARK       I    between atoms: C6_49  and  O61_52 
ROOT
ATOM      1  N   SGN d 302       4.760   0.405  49.206  0.00  0.00    -0.189 NA
ATOM      2  C4  SGN d 302       6.813  -0.270  52.164  0.00  0.00     0.186 C 
ATOM      3  C1  SGN d 302       5.149   1.714  51.111  0.00  0.00     0.282 C 
ATOM      4  O6  SGN d 302       8.075   1.677  53.634  0.00  0.00    -0.254 OA
ATOM      5  O4  SGN d 302       6.953  -1.492  52.853  0.00  0.00    -0.348 OA
ATOM      6  C3  SGN d 302       5.993  -0.602  50.947  0.00  0.00     0.173 C 
ATOM      7  C6  SGN d 302       6.899   1.132  54.221  0.00  0.00     0.227 C 
ATOM      8  O1  SGN d 302       3.806   1.453  51.425  0.00  0.00    -0.348 OA
ATOM      9  O3S SGN d 302       4.693   2.649  47.996  0.00  0.00    -0.582 OA
ATOM     10  C5  SGN d 302       6.057   0.715  53.045  0.00  0.00     0.181 C 
ATOM     11  O5S SGN d 302       9.999   1.632  55.376  0.00  0.00    -0.572 OA
ATOM     12  C2  SGN d 302       5.753   0.671  50.202  0.00  0.00     0.160 C 
ATOM     13  O3  SGN d 302       6.742  -1.505  50.165  0.00  0.00    -0.391 OA
ATOM     14  S1  SGN d 302       5.033   1.274  47.703  0.00  0.00     0.183 S 
ATOM     15  O5  SGN d 302       5.914   1.873  52.284  0.00  0.00    -0.349 OA
ATOM     16  O2S SGN d 302       6.396   1.112  47.326  0.00  0.00    -0.582 OA
ATOM     17  O1S SGN d 302       4.218   0.664  46.667  0.00  0.00    -0.582 OA
ATOM     18  S2  SGN d 302       9.194   2.571  54.642  0.00  0.00     0.251 S 
ATOM     19  O6S SGN d 302       8.390   3.407  55.495  0.00  0.00    -0.572 OA
ATOM     20  O4S SGN d 302      10.048   3.389  53.849  0.00  0.00    -0.572 OA
ATOM     21  H   SGN d 302       3.849   0.677  49.576  0.00  0.00     0.143 HD
ATOM     22  H   SGN d 302       7.595  -1.104  49.937  0.00  0.00     0.210 HD
ATOM     23  C5  SGN d 304      -2.675   0.849  53.016  0.00  0.00     0.181 C 
ATOM     24  O3  SGN d 304      -1.059   4.018  53.988  0.00  0.00    -0.391 OA
ATOM     25  C2  SGN d 304      -2.975   2.992  54.913  0.00  0.00     0.160 C 
ATOM     26  C6  SGN d 304      -2.305  -0.506  52.459  0.00  0.00     0.227 C 
ATOM     27  S1  SGN d 304      -3.594   5.097  56.697  0.00  0.00     0.183 S 
ATOM     28  N   SGN d 304      -3.636   4.280  55.109  0.00  0.00    -0.189 NA
ATOM     29  O1  SGN d 304      -5.172   2.314  53.931  0.00  0.00    -0.369 OA
ATOM     30  S2  SGN d 304      -0.766  -1.852  54.290  0.00  0.00     0.251 S 
ATOM     31  O4  SGN d 304      -0.698   1.991  52.063  0.00  0.00    -0.348 OA
ATOM     32  O1S SGN d 304      -4.589   4.513  57.538  0.00  0.00    -0.582 OA
ATOM     33  O6  SGN d 304      -2.311  -1.427  53.544  0.00  0.00    -0.254 OA
ATOM     34  O3S SGN d 304      -2.310   4.935  57.320  0.00  0.00    -0.582 OA
ATOM     35  O5S SGN d 304      -0.961  -2.294  55.649  0.00  0.00    -0.572 OA
ATOM     36  O4S SGN d 304      -0.230  -2.922  53.489  0.00  0.00    -0.572 OA
ATOM     37  C4  SGN d 304      -1.479   1.780  53.270  0.00  0.00     0.186 C 
ATOM     38  O5  SGN d 304      -3.435   0.686  54.234  0.00  0.00    -0.350 OA
ATOM     39  C3  SGN d 304      -2.089   3.126  53.683  0.00  0.00     0.173 C 
ATOM     40  O6S SGN d 304       0.111  -0.705  54.296  0.00  0.00    -0.572 OA
ATOM     41  O2S SGN d 304      -3.858   6.495  56.527  0.00  0.00    -0.582 OA
ATOM     42  C1  SGN d 304      -4.039   1.900  54.707  0.00  0.00     0.278 C 
ATOM     43  H   SGN d 304      -1.438   4.872  54.250  0.00  0.00     0.210 HD
ATOM     44  H   SGN d 304      -4.620   4.140  54.880  0.00  0.00     0.143 HD
ATOM     45  H   SGN d 304      -5.533   3.135  54.299  0.00  0.00     0.212 HD
ATOM     46  O3S UAP d 301       8.437  -4.626  56.834  0.00  0.00    -0.572 OA
ATOM     47  C5  UAP d 301       8.850  -3.551  51.831  0.00  0.00     0.144 C 
ATOM     48  C3  UAP d 301       7.390  -4.151  53.652  0.00  0.00     0.179 C 
ATOM     49  C2  UAP d 301       7.985  -2.915  54.333  0.00  0.00     0.233 C 
ATOM     50  O62 UAP d 301      10.352  -3.267  50.239  0.00  0.00    -0.645 OA
ATOM     51  O5  UAP d 301       9.111  -2.319  52.330  0.00  0.00    -0.311 OA
ATOM     52  O2  UAP d 301       9.261  -3.255  54.797  0.00  0.00    -0.244 OA
ATOM     53  O2S UAP d 301      10.761  -4.020  56.741  0.00  0.00    -0.572 OA
ATOM     54  C6  UAP d 301       9.498  -3.984  50.768  0.00  0.00     0.200 C 
ATOM     55  O61 UAP d 301       9.258  -5.132  50.386  0.00  0.00    -0.771 OA
ATOM     56  O1S UAP d 301       9.063  -2.438  57.214  0.00  0.00    -0.572 OA
ATOM     57  C1  UAP d 301       8.236  -1.815  53.345  0.00  0.00     0.300 C 
ATOM     58  C4  UAP d 301       8.037  -4.426  52.408  0.00  0.00     0.051 C 
ATOM     59  O3  UAP d 301       6.010  -4.043  53.417  0.00  0.00    -0.389 OA
ATOM     60  S   UAP d 301       9.398  -3.615  56.490  0.00  0.00     0.252 S 
ATOM     61  H   UAP d 301       8.600  -5.641  50.817  0.00  0.00     0.167 HD
ATOM     62  H   UAP d 301       5.844  -3.319  52.794  0.00  0.00     0.210 HD
ATOM     63  S   IDS d 303       1.119  -0.885  49.130  0.00  0.00     0.252 S 
ATOM     64  C2  IDS d 303       1.123   1.351  50.475  0.00  0.00     0.231 C 
ATOM     65  O3S IDS d 303      -0.150  -1.220  49.633  0.00  0.00    -0.572 OA
ATOM     66  C5  IDS d 303       2.228   2.630  52.749  0.00  0.00     0.253 C 
ATOM     67  C4  IDS d 303       2.994   2.636  51.440  0.00  0.00     0.195 C 
ATOM     68  O5  IDS d 303       1.515   1.384  52.851  0.00  0.00    -0.340 OA
ATOM     69  O2S IDS d 303       0.873  -0.265  47.848  0.00  0.00    -0.572 OA
ATOM     70  O62 IDS d 303       3.336   1.747  54.634  0.00  0.00    -0.648 OA
ATOM     71  C1  IDS d 303       0.490   1.203  51.865  0.00  0.00     0.294 C 
ATOM     72  O1S IDS d 303       1.994  -2.013  48.991  0.00  0.00    -0.572 OA
ATOM     73  C3  IDS d 303       1.999   2.592  50.291  0.00  0.00     0.185 C 
ATOM     74  O3  IDS d 303       1.240   3.768  50.246  0.00  0.00    -0.390 OA
ATOM     75  C6  IDS d 303       3.229   2.720  53.870  0.00  0.00     0.172 C 
ATOM     76  O61 IDS d 303       4.030   3.670  53.840  0.00  0.00    -0.774 OA
ATOM     77  O2  IDS d 303       1.884   0.230  50.187  0.00  0.00    -0.244 OA
ATOM     78  H   IDS d 303       0.754   3.872  51.079  0.00  0.00     0.210 HD
ATOM     79  H   IDS d 303       3.896   4.377  53.240  0.00  0.00     0.167 HD
ENDROOT
TORSDOF 29
