REMARK  0 active torsions:
REMARK  status: ('A' for Active; 'I' for Inactive)
REMARK       I    between atoms: C1_1  and  O4_49 
REMARK       I    between atoms: O4_5  and  C1_20 
REMARK       I    between atoms: O4_5  and  C4_96 
REMARK       I    between atoms: C5_7  and  C6_78 
REMARK       I    between atoms: C1_8  and  O4_52 
REMARK       I    between atoms: C2_11  and  O2_15 
REMARK       I    between atoms: S2_12  and  O6_41 
REMARK       I    between atoms: C1_13  and  O4_82 
REMARK       I    between atoms: C2_14  and  O2_79 
REMARK       I    between atoms: O2_15  and  S_31 
REMARK       I    between atoms: S2_16  and  O6_17 
REMARK       I    between atoms: O6_17  and  C6_50 
REMARK       I    between atoms: C1_18  and  O1_83 
REMARK       I    between atoms: S1_19  and  N_55 
REMARK       I    between atoms: O3_21  and  C3_61 
REMARK       I    between atoms: C2_22  and  N_95 
REMARK       I    between atoms: S_24  and  O2_30 
REMARK       I    between atoms: C3_25  and  O3_98 
REMARK       I    between atoms: O3_26  and  C3_36 
REMARK       I    between atoms: O62_28  and  C6_44 
REMARK       I    between atoms: O6_29  and  C6_43 
REMARK       I    between atoms: O6_29  and  S2_101 
REMARK       I    between atoms: O2_30  and  C2_33 
REMARK       I    between atoms: S1_32  and  N_95 
REMARK       I    between atoms: C5_37  and  C6_84 
REMARK       I    between atoms: O3_39  and  C3_92 
REMARK       I    between atoms: O6_41  and  C6_78 
REMARK       I    between atoms: C6_43  and  C5_76 
REMARK       I    between atoms: C6_44  and  C5_87 
REMARK       I    between atoms: O61_46  and  C6_84 
REMARK       I    between atoms: O4_47  and  C1_80 
REMARK       I    between atoms: O4_47  and  C4_75 
REMARK       I    between atoms: O4_49  and  C4_64 
REMARK       I    between atoms: C6_50  and  C5_91 
REMARK       I    between atoms: C3_51  and  O3_102 
REMARK       I    between atoms: O4_52  and  C4_56 
REMARK       I    between atoms: C4_53  and  O4_82 
REMARK       I    between atoms: N_55  and  C2_97 
REMARK       I    between atoms: C2_59  and  N_104 
REMARK       I    between atoms: S1_67  and  N_104 
REMARK       I    between atoms: C6_69  and  C5_85 
REMARK       I    between atoms: C6_69  and  O62_86 
REMARK       I    between atoms: O3_74  and  C3_103 
REMARK       I    between atoms: O2_79  and  S_100 
ROOT
ATOM      1  C1  IDS d  61      17.786  33.335  35.701  0.00  0.00     0.300 C 
ATOM      2  C2  IDS d  61      18.511  32.342  34.799  0.00  0.00     0.233 C 
ATOM      3  O3  IDS d  61      20.017  31.213  36.160  0.00  0.00    -0.389 OA
ATOM      4  O1S IDS d  61      15.297  32.918  34.162  0.00  0.00    -0.572 OA
ATOM      5  C4  IDS d  61      17.726  30.567  36.390  0.00  0.00     0.051 C 
ATOM      6  O3S IDS d  61      16.785  34.338  32.905  0.00  0.00    -0.572 OA
ATOM      7  C3  IDS d  61      18.825  31.013  35.486  0.00  0.00     0.179 C 
ATOM      8  O2S IDS d  61      15.716  32.410  31.974  0.00  0.00    -0.572 OA
ATOM      9  C6  IDS d  61      15.357  30.777  37.327  0.00  0.00     0.200 C 
ATOM     10  O5  IDS d  61      16.598  32.689  36.228  0.00  0.00    -0.311 OA
ATOM     11  O2  IDS d  61      17.698  32.004  33.662  0.00  0.00    -0.244 OA
ATOM     12  C5  IDS d  61      16.654  31.367  36.649  0.00  0.00     0.144 C 
ATOM     13  O62 IDS d  61      14.345  31.504  37.482  0.00  0.00    -0.771 OA
ATOM     14  S   IDS d  61      16.304  32.984  33.136  0.00  0.00     0.252 S 
ATOM     15  O61 IDS d  61      15.329  29.595  37.672  0.00  0.00    -0.645 OA
ATOM     17  H   IDS d  61      14.369  32.403  37.219  0.00  0.00     0.167 HD
ATOM     18  O4S SGN d  62      21.706  37.249  34.344  0.00  0.00    -0.572 OA
ATOM     19  C1  SGN d  62      18.295  36.351  40.106  0.00  0.00     0.282 C 
ATOM     20  S2  SGN d  62      21.993  36.396  35.449  0.00  0.00     0.251 S 
ATOM     21  O6  SGN d  62      20.544  35.561  35.955  0.00  0.00    -0.254 OA
ATOM     22  S1  SGN d  62      15.668  34.987  42.068  0.00  0.00     0.183 S 
ATOM     23  O3  SGN d  62      16.984  33.020  39.045  0.00  0.00    -0.391 OA
ATOM     24  O3S SGN d  62      15.548  36.417  42.233  0.00  0.00    -0.582 OA
ATOM     25  O4  SGN d  62      18.668  33.670  36.792  0.00  0.00    -0.348 OA
ATOM     26  C6  SGN d  62      19.567  36.392  36.556  0.00  0.00     0.227 C 
ATOM     27  N   SGN d  62      17.161  34.583  41.259  0.00  0.00    -0.189 NA
ATOM     28  O1S SGN d  62      15.656  34.294  43.339  0.00  0.00    -0.582 OA
ATOM     29  C4  SGN d  62      18.144  34.651  37.684  0.00  0.00     0.186 C 
ATOM     30  O5  SGN d  62      18.713  36.775  38.769  0.00  0.00    -0.349 OA
ATOM     31  O5S SGN d  62      22.918  35.367  35.059  0.00  0.00    -0.572 OA
ATOM     32  O2S SGN d  62      14.613  34.553  41.198  0.00  0.00    -0.582 OA
ATOM     33  O6S SGN d  62      22.558  37.112  36.590  0.00  0.00    -0.572 OA
ATOM     34  C5  SGN d  62      19.212  35.742  37.872  0.00  0.00     0.181 C 
ATOM     35  C3  SGN d  62      17.926  34.058  39.085  0.00  0.00     0.173 C 
ATOM     36  C2  SGN d  62      17.348  35.167  39.969  0.00  0.00     0.160 C 
ATOM     37  H   SGN d  62      17.321  32.299  38.491  0.00  0.00     0.210 HD
ATOM     38  H   SGN d  62      17.194  33.569  41.151  0.00  0.00     0.143 HD
ATOM     39  O1S SGN d  64      26.141  39.970  44.965  0.00  0.00    -0.582 OA
ATOM     40  C5  SGN d  64      21.265  36.941  47.568  0.00  0.00     0.181 C 
ATOM     41  O5  SGN d  64      22.480  37.418  48.217  0.00  0.00    -0.349 OA
ATOM     42  S2  SGN d  64      23.316  34.444  48.506  0.00  0.00     0.251 S 
ATOM     43  C1  SGN d  64      22.930  38.717  47.777  0.00  0.00     0.282 C 
ATOM     44  C2  SGN d  64      23.241  38.658  46.304  0.00  0.00     0.160 C 
ATOM     45  C3  SGN d  64      22.006  38.237  45.569  0.00  0.00     0.173 C 
ATOM     46  S1  SGN d  64      24.770  40.165  44.521  0.00  0.00     0.183 S 
ATOM     47  O4S SGN d  64      23.009  33.320  47.660  0.00  0.00    -0.572 OA
ATOM     48  O6  SGN d  64      21.774  35.125  49.088  0.00  0.00    -0.254 OA
ATOM     49  O4  SGN d  64      20.396  36.404  45.389  0.00  0.00    -0.348 OA
ATOM     50  O3S SGN d  64      24.474  39.236  43.445  0.00  0.00    -0.582 OA
ATOM     51  O2S SGN d  64      24.564  41.510  44.059  0.00  0.00    -0.582 OA
ATOM     52  O5S SGN d  64      24.085  34.017  49.644  0.00  0.00    -0.572 OA
ATOM     53  C4  SGN d  64      21.588  36.829  46.067  0.00  0.00     0.186 C 
ATOM     54  C6  SGN d  64      20.851  35.591  48.114  0.00  0.00     0.227 C 
ATOM     55  O6S SGN d  64      24.078  35.425  47.761  0.00  0.00    -0.572 OA
ATOM     56  N   SGN d  64      23.634  39.975  45.867  0.00  0.00    -0.189 NA
ATOM     57  O3  SGN d  64      22.342  38.214  44.229  0.00  0.00    -0.391 OA
ATOM     58  H   SGN d  64      24.053  40.439  46.673  0.00  0.00     0.143 HD
ATOM     59  H   SGN d  64      23.089  37.610  44.093  0.00  0.00     0.210 HD
ATOM     60  O3S IDS d  65      24.357  46.478  49.244  0.00  0.00    -0.572 OA
ATOM     61  O4  IDS d  65      21.905  39.697  47.946  0.00  0.00    -0.348 OA
ATOM     62  O62 IDS d  65      19.030  39.676  49.949  0.00  0.00    -0.648 OA
ATOM     63  C1  IDS d  65      20.763  43.363  49.580  0.00  0.00     0.294 C 
ATOM     64  S   IDS d  65      24.265  45.142  48.662  0.00  0.00     0.252 S 
ATOM     65  O2  IDS d  65      22.560  44.638  48.516  0.00  0.00    -0.244 OA
ATOM     66  C2  IDS d  65      22.246  43.384  49.102  0.00  0.00     0.231 C 
ATOM     67  C5  IDS d  65      21.118  40.921  49.767  0.00  0.00     0.253 C 
ATOM     68  O61 IDS d  65      20.949  38.539  49.864  0.00  0.00    -0.774 OA
ATOM     69  O2S IDS d  65      24.898  44.187  49.550  0.00  0.00    -0.572 OA
ATOM     70  O5  IDS d  65      20.180  42.038  49.685  0.00  0.00    -0.340 OA
ATOM     71  O1S IDS d  65      24.911  45.109  47.351  0.00  0.00    -0.572 OA
ATOM     72  O3  IDS d  65      23.752  42.409  47.591  0.00  0.00    -0.390 OA
ATOM     73  C6  IDS d  65      20.293  39.610  49.860  0.00  0.00     0.172 C 
ATOM     74  C4  IDS d  65      22.160  40.946  48.594  0.00  0.00     0.195 C 
ATOM     75  C3  IDS d  65      22.431  42.359  48.029  0.00  0.00     0.185 C 
ATOM     76  H   IDS d  65      21.883  38.562  49.795  0.00  0.00     0.167 HD
ATOM     77  H   IDS d  65      23.941  43.290  47.232  0.00  0.00     0.210 HD
ATOM     78  O61 IDS d  63      22.007  38.033  40.839  0.00  0.00    -0.648 OA
ATOM     79  C2  IDS d  63      18.929  35.182  43.935  0.00  0.00     0.231 C 
ATOM     80  O2  IDS d  63      18.742  34.134  43.021  0.00  0.00    -0.244 OA
ATOM     81  O3  IDS d  63      18.622  37.472  44.281  0.00  0.00    -0.390 OA
ATOM     82  O2S IDS d  63      18.447  32.223  44.744  0.00  0.00    -0.572 OA
ATOM     83  O62 IDS d  63      23.009  36.239  41.519  0.00  0.00    -0.774 OA
ATOM     84  S   IDS d  63      19.218  32.512  43.542  0.00  0.00     0.252 S 
ATOM     85  C3  IDS d  63      18.509  36.498  43.267  0.00  0.00     0.185 C 
ATOM     86  O1S IDS d  63      18.878  31.632  42.439  0.00  0.00    -0.572 OA
ATOM     87  C6  IDS d  63      22.068  37.034  41.554  0.00  0.00     0.172 C 
ATOM     88  O4  IDS d  63      19.376  35.951  40.958  0.00  0.00    -0.348 OA
ATOM     89  C4  IDS d  63      19.500  36.830  42.069  0.00  0.00     0.195 C 
ATOM     90  O5  IDS d  63      21.249  35.500  43.295  0.00  0.00    -0.340 OA
ATOM     91  C1  IDS d  63      20.392  35.288  44.446  0.00  0.00     0.294 C 
ATOM     92  C5  IDS d  63      20.966  36.772  42.577  0.00  0.00     0.253 C 
ATOM     93  O3S IDS d  63      20.602  32.377  43.893  0.00  0.00    -0.572 OA
ATOM     94  H   IDS d  63      18.013  37.258  45.005  0.00  0.00     0.210 HD
ATOM     95  H   IDS d  63      23.012  35.491  42.083  0.00  0.00     0.167 HD
ATOM     96  C1  SGN d  66      21.807  42.346  55.063  0.00  0.00     0.278 C 
ATOM     97  O6  SGN d  66      21.649  46.109  53.009  0.00  0.00    -0.254 OA
ATOM     98  O5  SGN d  66      22.150  43.682  54.565  0.00  0.00    -0.350 OA
ATOM     99  C6  SGN d  66      22.714  45.188  52.676  0.00  0.00     0.227 C 
ATOM    100  O6S SGN d  66      19.864  47.912  52.314  0.00  0.00    -0.572 OA
ATOM    101  C3  SGN d  66      20.654  41.888  52.872  0.00  0.00     0.173 C 
ATOM    102  C4  SGN d  66      21.080  43.285  52.390  0.00  0.00     0.186 C 
ATOM    103  C2  SGN d  66      20.485  41.919  54.393  0.00  0.00     0.160 C 
ATOM    104  O2S SGN d  66      19.991  40.844  57.423  0.00  0.00    -0.582 OA
ATOM    105  S1  SGN d  66      20.503  39.918  56.432  0.00  0.00     0.183 S 
ATOM    106  O4S SGN d  66      20.133  46.101  50.814  0.00  0.00    -0.572 OA
ATOM    107  C5  SGN d  66      22.352  43.756  53.112  0.00  0.00     0.181 C 
ATOM    108  O4  SGN d  66      21.285  43.331  50.900  0.00  0.00    -0.348 OA
ATOM    109  O1  SGN d  66      22.809  41.372  54.711  0.00  0.00    -0.369 OA
ATOM    110  O1S SGN d  66      19.878  38.609  56.552  0.00  0.00    -0.582 OA
ATOM    111  O5S SGN d  66      21.841  47.783  50.998  0.00  0.00    -0.572 OA
ATOM    112  O3S SGN d  66      21.938  39.731  56.583  0.00  0.00    -0.582 OA
ATOM    113  S2  SGN d  66      20.828  47.012  51.713  0.00  0.00     0.251 S 
ATOM    114  O3  SGN d  66      19.387  41.559  52.304  0.00  0.00    -0.391 OA
ATOM    115  N   SGN d  66      20.072  40.579  54.833  0.00  0.00    -0.189 NA
ATOM    116  H   SGN d  66      22.887  41.323  53.745  0.00  0.00     0.212 HD
ATOM    117  H   SGN d  66      18.730  42.218  52.577  0.00  0.00     0.210 HD
ATOM    118  H   SGN d  66      20.450  39.927  54.146  0.00  0.00     0.143 HD
ENDROOT
TORSDOF 44
