REMARK  0 active torsions:
REMARK  status: ('A' for Active; 'I' for Inactive)
REMARK       I    between atoms: C3_2  and  O3_89 
REMARK       I    between atoms: C5_3  and  C6_69 
REMARK       I    between atoms: N_4  and  C2_16 
REMARK       I    between atoms: N_4  and  S1_30 
REMARK       I    between atoms: S_5  and  O2_53 
REMARK       I    between atoms: C6_6  and  C5_24 
REMARK       I    between atoms: C6_6  and  O6_7 
REMARK       I    between atoms: O6_7  and  S2_43 
REMARK       I    between atoms: O4_10  and  C1_29 
REMARK       I    between atoms: O4_10  and  C4_56 
REMARK       I    between atoms: C2_11  and  N_61 
REMARK       I    between atoms: C6_13  and  C5_93 
REMARK       I    between atoms: C6_13  and  O6_65 
REMARK       I    between atoms: C1_14  and  O4_34 
REMARK       I    between atoms: C6_15  and  C5_82 
REMARK       I    between atoms: C6_15  and  O6_32 
REMARK       I    between atoms: C5_17  and  C6_36 
REMARK       I    between atoms: O2_18  and  C2_70 
REMARK       I    between atoms: C3_19  and  O3_51 
REMARK       I    between atoms: C2_20  and  O2_50 
REMARK       I    between atoms: C4_26  and  O4_41 
REMARK       I    between atoms: O6_32  and  S2_76 
REMARK       I    between atoms: S1_33  and  N_61 
REMARK       I    between atoms: O4_34  and  C4_80 
REMARK       I    between atoms: C2_35  and  N_60 
REMARK       I    between atoms: C6_36  and  O6A_49 
REMARK       I    between atoms: O4_37  and  C1_73 
REMARK       I    between atoms: O4_37  and  C4_55 
REMARK       I    between atoms: C3_38  and  O3_74 
REMARK       I    between atoms: O6A_39  and  C6_87 
REMARK       I    between atoms: C1_40  and  O4_41 
REMARK       I    between atoms: O4_42  and  C1_47 
REMARK       I    between atoms: O4_42  and  C4_63 
REMARK       I    between atoms: O3_44  and  C3_95 
REMARK       I    between atoms: O61_46  and  C6_69 
REMARK       I    between atoms: O3_52  and  C3_92 
REMARK       I    between atoms: O2_53  and  C2_86 
REMARK       I    between atoms: O3_58  and  C3_81 
REMARK       I    between atoms: N_60  and  C_67 
REMARK       I    between atoms: O6_65  and  S_68 
REMARK       I    between atoms: S_68  and  O8_77 
REMARK       I    between atoms: C5_71  and  C6_87 
REMARK       I    between atoms: C4_78  and  O4_79 
ROOT
ATOM      1  O1S SGN d   5       7.335  17.703  53.686  0.00  0.00    -0.582 OA
ATOM      2  C3  SGN d   5       6.458  14.169  50.620  0.00  0.00     0.173 C 
ATOM      3  N   SGN d   5       6.402  15.907  52.271  0.00  0.00    -0.189 NA
ATOM      4  C6  SGN d   5       3.523  11.866  49.618  0.00  0.00     0.227 C 
ATOM      5  O6  SGN d   5       3.730  10.761  50.470  0.00  0.00    -0.254 OA
ATOM      6  O6S SGN d   5       3.155   8.641  51.511  0.00  0.00    -0.572 OA
ATOM      7  C2  SGN d   5       5.891  14.580  51.981  0.00  0.00     0.160 C 
ATOM      8  C5  SGN d   5       4.271  13.087  50.144  0.00  0.00     0.181 C 
ATOM      9  C1  SGN d   5       4.362  14.580  51.976  0.00  0.00     0.282 C 
ATOM     10  S1  SGN d   5       6.654  16.415  53.766  0.00  0.00     0.183 S 
ATOM     11  O5  SGN d   5       3.893  13.336  51.495  0.00  0.00    -0.349 OA
ATOM     12  O4  SGN d   5       6.196  12.844  48.665  0.00  0.00    -0.348 OA
ATOM     13  S2  SGN d   5       2.656   9.627  50.562  0.00  0.00     0.251 S 
ATOM     14  O2S SGN d   5       5.344  16.559  54.394  0.00  0.00    -0.582 OA
ATOM     15  C4  SGN d   5       5.787  12.936  50.024  0.00  0.00     0.186 C 
ATOM     16  O3S SGN d   5       7.478  15.389  54.397  0.00  0.00    -0.582 OA
ATOM     17  O5S SGN d   5       2.507   9.033  49.239  0.00  0.00    -0.572 OA
ATOM     18  O3  SGN d   5       7.843  13.948  50.740  0.00  0.00    -0.391 OA
ATOM     19  O4S SGN d   5       1.415  10.249  51.020  0.00  0.00    -0.572 OA
ATOM     20  H   SGN d   5       5.742  16.564  51.855  0.00  0.00     0.143 HD
ATOM     21  H   SGN d   5       8.001  13.215  51.355  0.00  0.00     0.210 HD
ATOM     22  C5  IDS d   4       8.816  12.004  48.345  0.00  0.00     0.253 C 
ATOM     23  S   IDS d   4       5.207   9.494  45.990  0.00  0.00     0.252 S 
ATOM     24  C3  IDS d   4       7.746  12.063  46.118  0.00  0.00     0.185 C 
ATOM     25  O62 IDS d   4      10.254  10.474  49.481  0.00  0.00    -0.648 OA
ATOM     26  O5  IDS d   4       7.840  11.117  48.737  0.00  0.00    -0.340 OA
ATOM     27  C4  IDS d   4       9.050  11.961  46.859  0.00  0.00     0.195 C 
ATOM     28  O3S IDS d   4       4.193   9.742  46.986  0.00  0.00    -0.572 OA
ATOM     29  O4  IDS d   4       9.788  10.835  46.485  0.00  0.00    -0.348 OA
ATOM     30  O61 IDS d   4      10.974  12.517  49.242  0.00  0.00    -0.774 OA
ATOM     31  O3  IDS d   4       7.425  13.400  45.985  0.00  0.00    -0.390 OA
ATOM     32  O2  IDS d   4       6.506  10.045  46.419  0.00  0.00    -0.244 OA
ATOM     33  O2S IDS d   4       5.406   8.047  45.835  0.00  0.00    -0.572 OA
ATOM     34  C6  IDS d   4      10.080  11.650  49.063  0.00  0.00     0.172 C 
ATOM     35  C1  IDS d   4       6.605  11.509  48.277  0.00  0.00     0.294 C 
ATOM     36  O1S IDS d   4       4.802  10.098  44.746  0.00  0.00    -0.572 OA
ATOM     37  C2  IDS d   4       6.573  11.378  46.785  0.00  0.00     0.231 C 
ATOM     38  H   IDS d   4      10.847  13.392  48.932  0.00  0.00     0.167 HD
ATOM     39  H   IDS d   4       7.297  13.791  46.864  0.00  0.00     0.210 HD
ATOM     40  O6B BDP d   2      18.554   8.430  45.062  0.00  0.00    -0.648 OA
ATOM     41  C1  BDP d   2      15.563  10.840  46.835  0.00  0.00     0.292 C 
ATOM     42  C5  BDP d   2      17.559  10.500  45.751  0.00  0.00     0.253 C 
ATOM     43  O2  BDP d   2      15.535  11.914  48.954  0.00  0.00    -0.388 OA
ATOM     44  C6  BDP d   2      18.256   9.615  44.762  0.00  0.00     0.172 C 
ATOM     45  C3  BDP d   2      17.617  11.603  47.952  0.00  0.00     0.183 C 
ATOM     46  O4  BDP d   2      19.510  11.541  46.545  0.00  0.00    -0.348 OA
ATOM     47  O6A BDP d   2      18.528  10.055  43.617  0.00  0.00    -0.774 OA
ATOM     48  C4  BDP d   2      18.404  10.804  46.968  0.00  0.00     0.195 C 
ATOM     49  C2  BDP d   2      16.253  11.041  48.150  0.00  0.00     0.204 C 
ATOM     50  O3  BDP d   2      18.254  11.604  49.179  0.00  0.00    -0.390 OA
ATOM     51  O5  BDP d   2      16.325   9.946  46.100  0.00  0.00    -0.340 OA
ATOM     52  H   BDP d   2      14.642  11.564  49.094  0.00  0.00     0.210 HD
ATOM     53  H   BDP d   2      18.308  10.937  43.389  0.00  0.00     0.167 HD
ATOM     54  H   BDP d   2      18.313  10.695  49.514  0.00  0.00     0.210 HD
ATOM     55  O4  BDP d   6       3.897  15.702  51.191  0.00  0.00    -0.348 OA
ATOM     56  C2  BDP d   6       1.043  17.621  52.447  0.00  0.00     0.173 C 
ATOM     57  O6B BDP d   6       1.040  14.451  49.079  0.00  0.00    -0.648 OA
ATOM     58  O6A BDP d   6       2.831  15.298  48.164  0.00  0.00    -0.774 OA
ATOM     59  O3  BDP d   6       2.680  16.519  53.671  0.00  0.00    -0.390 OA
ATOM     60  O2  BDP d   6       1.044  18.761  53.227  0.00  0.00    -0.391 OA
ATOM     61  C4  BDP d   6       2.552  15.972  51.391  0.00  0.00     0.195 C 
ATOM     62  C1  BDP d   6       0.580  17.988  51.080  0.00  0.00     0.203 C 
ATOM     63  C5  BDP d   6       1.956  16.422  50.082  0.00  0.00     0.250 C 
ATOM     64  C6  BDP d   6       1.943  15.330  49.055  0.00  0.00     0.172 C 
ATOM     65  O5  BDP d   6       0.656  16.870  50.276  0.00  0.00    -0.370 OA
ATOM     66  C3  BDP d   6       2.416  17.044  52.421  0.00  0.00     0.181 C 
ATOM     67  H   BDP d   6       3.502  15.952  48.147  0.00  0.00     0.167 HD
ATOM     68  H   BDP d   6       2.591  17.216  54.340  0.00  0.00     0.210 HD
ATOM     69  H   BDP d   6       1.649  19.415  52.843  0.00  0.00     0.210 HD
ATOM     70  C2  SGN d   3      11.295   9.830  44.801  0.00  0.00     0.160 C 
ATOM     71  O4S SGN d   3      15.364  14.931  43.974  0.00  0.00    -0.572 OA
ATOM     72  C6  SGN d   3      13.246  13.171  46.522  0.00  0.00     0.227 C 
ATOM     73  O5  SGN d   3      11.448  12.132  45.367  0.00  0.00    -0.349 OA
ATOM     74  O6  SGN d   3      13.930  13.491  45.331  0.00  0.00    -0.254 OA
ATOM     75  S1  SGN d   3       9.546   8.599  43.315  0.00  0.00     0.183 S 
ATOM     76  O4  SGN d   3      14.207  10.394  47.048  0.00  0.00    -0.348 OA
ATOM     77  C1  SGN d   3      10.520  11.071  45.255  0.00  0.00     0.282 C 
ATOM     78  O6S SGN d   3      15.914  14.526  46.295  0.00  0.00    -0.572 OA
ATOM     79  O1S SGN d   3       8.636   9.730  43.295  0.00  0.00    -0.582 OA
ATOM     80  O3  SGN d   3      13.182   8.410  45.244  0.00  0.00    -0.391 OA
ATOM     81  O2S SGN d   3      10.460   8.659  42.179  0.00  0.00    -0.582 OA
ATOM     82  N   SGN d   3      10.419   8.682  44.650  0.00  0.00    -0.189 NA
ATOM     83  O5S SGN d   3      14.003  15.866  45.757  0.00  0.00    -0.572 OA
ATOM     84  S2  SGN d   3      14.850  14.763  45.327  0.00  0.00     0.251 S 
ATOM     85  C4  SGN d   3      13.324  10.698  45.978  0.00  0.00     0.186 C 
ATOM     86  C3  SGN d   3      12.428   9.488  45.764  0.00  0.00     0.173 C 
ATOM     87  C5  SGN d   3      12.440  11.890  46.347  0.00  0.00     0.181 C 
ATOM     88  O3S SGN d   3       8.848   7.318  43.392  0.00  0.00    -0.582 OA
ATOM     89  H   SGN d   3      12.602   7.644  45.111  0.00  0.00     0.210 HD
ATOM     90  H   SGN d   3       9.773   8.683  45.439  0.00  0.00     0.143 HD
ATOM     91  C6  NGY d   1      22.888   9.268  45.567  0.00  0.00     0.226 C 
ATOM     92  O5  NGY d   1      21.521  10.418  47.121  0.00  0.00    -0.349 OA
ATOM     93  C2  NGY d   1      21.402  12.739  47.368  0.00  0.00     0.170 C 
ATOM     94  C1  NGY d   1      20.653  11.449  47.427  0.00  0.00     0.286 C 
ATOM     95  O3  NGY d   1      22.675  14.072  45.904  0.00  0.00    -0.391 OA
ATOM     96  N   NGY d   1      20.501  13.824  47.610  0.00  0.00    -0.349 N 
ATOM     97  O9  NGY d   1      25.939   8.208  47.330  0.00  0.00    -0.579 OA
ATOM     98  O6  NGY d   1      24.059   9.247  46.301  0.00  0.00    -0.261 OA
ATOM     99  C   NGY d   1      20.895  14.920  48.437  0.00  0.00     0.214 C 
ATOM    100  S   NGY d   1      24.799   7.977  46.475  0.00  0.00     0.240 S 
ATOM    101  CH3 NGY d   1      19.936  16.039  48.673  0.00  0.00     0.117 C 
ATOM    102  O8  NGY d   1      23.849   7.051  47.090  0.00  0.00    -0.274 OA
ATOM    103  C4  NGY d   1      22.886  11.733  45.749  0.00  0.00     0.180 C 
ATOM    104  O4  NGY d   1      23.418  11.840  44.484  0.00  0.00    -0.390 OA
ATOM    105  O7  NGY d   1      25.246   7.477  45.201  0.00  0.00    -0.579 OA
ATOM    106  O   NGY d   1      22.007  14.938  48.946  0.00  0.00    -0.274 OA
ATOM    107  C3  NGY d   1      21.980  12.886  46.004  0.00  0.00     0.177 C 
ATOM    108  C5  NGY d   1      22.069  10.487  45.857  0.00  0.00     0.181 C 
ATOM    109  H   NGY d   1      22.074  14.814  46.072  0.00  0.00     0.210 HD
ATOM    110  H   NGY d   1      19.604  13.815  47.204  0.00  0.00     0.163 HD
ATOM    111  H   NGY d   1      23.560   7.405  47.946  0.00  0.00     0.234 HD
ATOM    112  H   NGY d   1      22.700  11.859  43.832  0.00  0.00     0.210 HD
ENDROOT
TORSDOF 42
