REMARK  0 active torsions:
REMARK  status: ('A' for Active; 'I' for Inactive)
REMARK       I    between atoms: O4_2  and  C4_31 
REMARK       I    between atoms: S_4  and  O2_36 
REMARK       I    between atoms: C1_5  and  O1_37 
REMARK       I    between atoms: C3_7  and  O3_22 
REMARK       I    between atoms: S1_9  and  N_20 
REMARK       I    between atoms: O4_10  and  C1_19 
REMARK       I    between atoms: O4_10  and  C4_35 
REMARK       I    between atoms: C5_11  and  C6_17 
REMARK       I    between atoms: C6_14  and  C5_26 
REMARK       I    between atoms: C6_14  and  O6_27 
REMARK       I    between atoms: C6_17  and  O62_24 
REMARK       I    between atoms: N_20  and  C2_30 
REMARK       I    between atoms: S2_21  and  O6_27 
REMARK       I    between atoms: O3_25  and  C3_33 
REMARK       I    between atoms: C2_34  and  O2_36 
ROOT
ATOM      1  O2S SGN d 141     -41.820  -3.266  15.210  0.00  0.00    -0.582 OA
ATOM      2  O4  SGN d 141     -42.611  -6.583  19.794  0.00  0.00    -0.390 OA
ATOM      3  C3  SGN d 141     -41.837  -4.898  18.504  0.00  0.00     0.172 C 
ATOM      4  S1  SGN d 141     -40.906  -2.412  15.892  0.00  0.00     0.183 S 
ATOM      5  O4S SGN d 141     -38.702 -10.458  16.366  0.00  0.00    -0.572 OA
ATOM      6  O5S SGN d 141     -39.828 -11.001  18.410  0.00  0.00    -0.572 OA
ATOM      7  C6  SGN d 141     -40.255  -8.358  19.011  0.00  0.00     0.227 C 
ATOM      8  O3S SGN d 141     -39.612  -2.465  15.279  0.00  0.00    -0.582 OA
ATOM      9  O6S SGN d 141     -37.693  -9.942  18.496  0.00  0.00    -0.572 OA
ATOM     10  C1  SGN d 141     -39.438  -4.987  17.886  0.00  0.00     0.282 C 
ATOM     11  N   SGN d 141     -40.800  -3.050  17.329  0.00  0.00    -0.189 NA
ATOM     12  S2  SGN d 141     -38.934 -10.090  17.747  0.00  0.00     0.251 S 
ATOM     13  O3  SGN d 141     -43.169  -4.657  18.112  0.00  0.00    -0.391 OA
ATOM     14  C5  SGN d 141     -40.326  -6.849  19.049  0.00  0.00     0.181 C 
ATOM     15  O6  SGN d 141     -39.694  -8.744  17.779  0.00  0.00    -0.254 OA
ATOM     16  O1S SGN d 141     -41.426  -1.084  16.006  0.00  0.00    -0.582 OA
ATOM     17  O5  SGN d 141     -39.417  -6.388  18.088  0.00  0.00    -0.349 OA
ATOM     18  C2  SGN d 141     -40.818  -4.485  17.460  0.00  0.00     0.160 C 
ATOM     19  C4  SGN d 141     -41.739  -6.383  18.720  0.00  0.00     0.179 C 
ATOM     20  H   SGN d 141     -43.499  -6.277  19.551  0.00  0.00     0.210 HD
ATOM     21  H   SGN d 141     -41.584  -2.690  17.874  0.00  0.00     0.143 HD
ATOM     22  H   SGN d 141     -43.373  -5.179  17.320  0.00  0.00     0.210 HD
ATOM     23  O61 IDY d 142     -37.849  -5.661  22.341  0.00  0.00    -0.648 OA
ATOM     24  S   IDY d 142     -40.107   0.456  19.484  0.00  0.00     0.252 S 
ATOM     25  C1  IDY d 142     -38.042  -1.250  21.050  0.00  0.00     0.293 C 
ATOM     26  OS2 IDY d 142     -39.643   1.365  18.413  0.00  0.00    -0.572 OA
ATOM     27  C7  IDY d 142     -35.673  -0.290  21.637  0.00  0.00     0.204 C 
ATOM     28  O4  IDY d 142     -39.044  -4.356  19.076  0.00  0.00    -0.348 OA
ATOM     29  C5  IDY d 142     -37.773  -3.621  21.056  0.00  0.00     0.253 C 
ATOM     30  OS3 IDY d 142     -39.625   0.999  20.798  0.00  0.00    -0.572 OA
ATOM     31  C6  IDY d 142     -38.525  -4.806  21.617  0.00  0.00     0.172 C 
ATOM     32  OS1 IDY d 142     -41.574   0.357  19.443  0.00  0.00    -0.572 OA
ATOM     33  O62 IDY d 142     -39.848  -4.607  21.772  0.00  0.00    -0.774 OA
ATOM     34  O3  IDY d 142     -36.177  -2.136  18.540  0.00  0.00    -0.390 OA
ATOM     35  O5  IDY d 142     -38.439  -2.480  21.620  0.00  0.00    -0.340 OA
ATOM     36  C3  IDY d 142     -37.617  -2.365  18.828  0.00  0.00     0.185 C 
ATOM     37  C2  IDY d 142     -38.137  -1.163  19.549  0.00  0.00     0.231 C 
ATOM     38  C4  IDY d 142     -37.785  -3.666  19.536  0.00  0.00     0.195 C 
ATOM     39  O2  IDY d 142     -39.523  -0.915  19.229  0.00  0.00    -0.244 OA
ATOM     40  O1  IDY d 142     -37.000  -0.762  21.501  0.00  0.00    -0.363 OA
ATOM     41  H   IDY d 142     -40.294  -3.985  21.232  0.00  0.00     0.167 HD
ATOM     42  H   IDY d 142     -36.070  -1.289  18.079  0.00  0.00     0.210 HD
ENDROOT
TORSDOF 15
