REMARK WARNING: 32 MAX_TORS EXCEEDED!!!
REMARK  50 active torsions:
REMARK  status: ('A' for Active; 'I' for Inactive)
REMARK    1 I    between atoms: C2_1  and  N_100 
REMARK    2 A    between atoms: O4_2  and  C1_19 
REMARK    2  A    between atoms: O4_2  and  C1_19 
REMARK    3 I    between atoms: O4_2  and  C4_31 
REMARK    4 I    between atoms: O1S_6  and  S1_60 
REMARK    5 I    between atoms: C3_7  and  O3_67 
REMARK    6 I    between atoms: O2_8  and  C2_96 
REMARK    7 I    between atoms: O2_8  and  S_80 
REMARK    8 I    between atoms: O2S_9  and  S1_60 
REMARK    9 A    between atoms: O4_12  and  C1_46 
REMARK    9  A    between atoms: O4_12  and  C1_46 
REMARK   10 I    between atoms: O4_12  and  C4_99 
REMARK   11 I    between atoms: O1S_13  and  S1_90 
REMARK   12 I    between atoms: O3_14  and  C3_58 
REMARK   13 I    between atoms: C2_16  and  O2_47 
REMARK   14 I    between atoms: O3S_17  and  S1_60 
REMARK   15 I    between atoms: C5_20  and  C6_53 
REMARK   16 I    between atoms: S2_21  and  O6_54 
REMARK   17 I    between atoms: S2_22  and  O6_63 
REMARK   18 I    between atoms: C6_23  and  C5_24 
REMARK   19 I    between atoms: C6_26  and  C5_88 
REMARK   20 I    between atoms: C6_26  and  O6_37 
REMARK   21 I    between atoms: C1_27  and  O1_55 
REMARK   22 I    between atoms: O2S_28  and  S1_29 
REMARK   23 I    between atoms: S1_29  and  N_77 
REMARK   24 I    between atoms: S1_29  and  O1S_85 
REMARK   25 I    between atoms: S1_29  and  O3S_103 
REMARK   26 I    between atoms: O3_32  and  C3_65 
REMARK   27 I    between atoms: C3_33  and  O3_83 
REMARK   28 I    between atoms: C4_34  and  O4_94 
REMARK   29 I    between atoms: C3_35  and  O3_93 
REMARK   30 I    between atoms: O6_37  and  S2_92 
REMARK   31 I    between atoms: O2S_42  and  S1_90 
REMARK   32 A    between atoms: O4_43  and  C1_48 
REMARK   32  A    between atoms: O4_43  and  C1_48 
REMARK   33 I    between atoms: O4_43  and  C4_44 
REMARK   34 I    between atoms: O3S_45  and  S1_90 
REMARK   35 I    between atoms: O2_47  and  S_64 
REMARK   36 I    between atoms: O2_49  and  C2_75 
REMARK   37 I    between atoms: O2_49  and  S_56 
REMARK   38 I    between atoms: C1_50  and  O4_94 
REMARK   39 I    between atoms: O3_51  and  C3_86 
REMARK   40 I    between atoms: C6_53  and  O6_54 
REMARK   41 I    between atoms: C5_59  and  C6_66 
REMARK   42 I    between atoms: S1_60  and  N_100 
REMARK   43 I    between atoms: C4_62  and  O4_84 
REMARK   44 I    between atoms: O6_63  and  C6_104 
REMARK   45 I    between atoms: C5_68  and  C6_71 
REMARK   46 I    between atoms: C1_69  and  O4_84 
REMARK   47 I    between atoms: N_70  and  C2_76 
REMARK   48 I    between atoms: N_70  and  S1_90 
REMARK   49 I    between atoms: N_77  and  C2_102 
REMARK   50 I    between atoms: C5_101  and  C6_104 
ROOT
ATOM      1  C1  SGN d  64      22.930  38.717  47.777  0.00  0.00     0.282 C 
ATOM      2  O5  SGN d  64      22.480  37.418  48.217  0.00  0.00    -0.349 OA
ATOM      3  C3  SGN d  64      22.006  38.237  45.569  0.00  0.00     0.173 C 
ATOM      4  C4  SGN d  64      21.588  36.829  46.067  0.00  0.00     0.186 C 
ATOM      5  C5  SGN d  64      21.265  36.941  47.568  0.00  0.00     0.181 C 
ATOM      6  C2  SGN d  64      23.241  38.658  46.304  0.00  0.00     0.157 C 
ENDROOT
BRANCH   4   7
ATOM      7  O4  SGN d  64      20.396  36.404  45.389  0.00  0.00    -0.348 OA
BRANCH   7   8
ATOM      8  C1  IDS d  63      20.392  35.288  44.446  0.00  0.00     0.294 C 
ATOM      9  O5  IDS d  63      21.249  35.500  43.295  0.00  0.00    -0.340 OA
ATOM     10  C5  IDS d  63      20.966  36.772  42.577  0.00  0.00     0.257 C 
ATOM     11  C4  IDS d  63      19.500  36.830  42.069  0.00  0.00     0.195 C 
ATOM     12  C3  IDS d  63      18.509  36.498  43.267  0.00  0.00     0.185 C 
ATOM     13  C2  IDS d  63      18.929  35.182  43.935  0.00  0.00     0.231 C 
BRANCH  10  14
ATOM     14  C6  IDS d  63      22.068  37.034  41.554  0.00  0.00     0.206 C 
ATOM     15  O61 IDS d  63      22.007  38.033  40.839  0.00  0.00    -0.646 OA
ATOM     16  O62 IDS d  63      23.009  36.239  41.519  0.00  0.00    -0.646 OA
ENDBRANCH  10  14
BRANCH  11  17
ATOM     17  O4  IDS d  63      19.376  35.951  40.958  0.00  0.00    -0.348 OA
BRANCH  17  18
ATOM     18  C1  SGN d  62      18.295  36.351  40.106  0.00  0.00     0.282 C 
ATOM     19  C2  SGN d  62      17.348  35.167  39.969  0.00  0.00     0.157 C 
ATOM     20  C3  SGN d  62      17.926  34.058  39.085  0.00  0.00     0.173 C 
ATOM     21  C4  SGN d  62      18.144  34.651  37.684  0.00  0.00     0.186 C 
ATOM     22  C5  SGN d  62      19.212  35.742  37.872  0.00  0.00     0.181 C 
ATOM     23  O5  SGN d  62      18.713  36.775  38.769  0.00  0.00    -0.349 OA
BRANCH  19  24
ATOM     24  N   SGN d  62      17.161  34.583  41.259  0.00  0.00    -0.210 NA
ATOM     25  H   SGN d  62      17.931  34.887  41.854  0.00  0.00     0.140 HD
BRANCH  24  26
ATOM     26  S1  SGN d  62      15.668  34.987  42.068  0.00  0.00     0.156 S 
BRANCH  26  27
ATOM     27  O1S SGN d  62      15.656  34.294  43.339  0.00  0.00    -0.296 OA
ATOM     28  H   SGN d  62      14.835  34.501  43.812  0.00  0.00     0.231 HD
ENDBRANCH  26  27
BRANCH  26  29
ATOM     29  O2S SGN d  62      14.613  34.553  41.198  0.00  0.00    -0.296 OA
ATOM     30  H   SGN d  62      13.755  34.756  41.604  0.00  0.00     0.231 HD
ENDBRANCH  26  29
BRANCH  26  31
ATOM     31  O3S SGN d  62      15.548  36.417  42.233  0.00  0.00    -0.296 OA
ATOM     32  H   SGN d  62      14.714  36.622  42.684  0.00  0.00     0.231 HD
ENDBRANCH  26  31
ENDBRANCH  24  26
ENDBRANCH  19  24
BRANCH  20  33
ATOM     33  O3  SGN d  62      16.984  33.020  39.045  0.00  0.00    -0.391 OA
ATOM     34  H   SGN d  62      16.141  33.361  38.708  0.00  0.00     0.210 HD
ENDBRANCH  20  33
BRANCH  21  35
ATOM     35  O4  SGN d  62      18.668  33.670  36.792  0.00  0.00    -0.348 OA
BRANCH  35  36
ATOM     36  C1  IDS d  61      17.786  33.335  35.701  0.00  0.00     0.300 C 
ATOM     37  C2  IDS d  61      18.511  32.342  34.799  0.00  0.00     0.233 C 
ATOM     38  C3  IDS d  61      18.825  31.013  35.486  0.00  0.00     0.179 C 
ATOM     39  C4  IDS d  61      17.726  30.567  36.390  0.00  0.00     0.051 C 
ATOM     40  C5  IDS d  61      16.654  31.367  36.649  0.00  0.00     0.147 C 
ATOM     41  O5  IDS d  61      16.598  32.689  36.228  0.00  0.00    -0.311 OA
BRANCH  37  42
ATOM     42  O2  IDS d  61      17.698  32.004  33.662  0.00  0.00    -0.244 OA
BRANCH  42  43
ATOM     43  S   IDS d  61      16.304  32.984  33.136  0.00  0.00     0.252 S 
ATOM     44  O3S IDS d  61      16.785  34.338  32.905  0.00  0.00    -0.572 OA
ATOM     45  O1S IDS d  61      15.297  32.918  34.162  0.00  0.00    -0.572 OA
ATOM     46  O2S IDS d  61      15.716  32.410  31.974  0.00  0.00    -0.572 OA
ENDBRANCH  42  43
ENDBRANCH  37  42
BRANCH  38  47
ATOM     47  O3  IDS d  61      20.017  31.213  36.160  0.00  0.00    -0.389 OA
ATOM     48  H   IDS d  61      19.910  31.934  36.799  0.00  0.00     0.210 HD
ENDBRANCH  38  47
BRANCH  40  49
ATOM     49  C6  IDS d  61      15.357  30.777  37.327  0.00  0.00     0.233 C 
ATOM     50  O62 IDS d  61      14.345  31.504  37.482  0.00  0.00    -0.642 OA
ATOM     51  O61 IDS d  61      15.329  29.595  37.672  0.00  0.00    -0.642 OA
ENDBRANCH  40  49
ENDBRANCH  35  36
ENDBRANCH  21  35
BRANCH  22  52
ATOM     52  C6  SGN d  62      19.567  36.392  36.556  0.00  0.00     0.227 C 
BRANCH  52  53
ATOM     53  O6  SGN d  62      20.544  35.561  35.955  0.00  0.00    -0.254 OA
BRANCH  53  54
ATOM     54  S2  SGN d  62      21.993  36.396  35.449  0.00  0.00     0.251 S 
ATOM     55  O4S SGN d  62      21.706  37.249  34.344  0.00  0.00    -0.572 OA
ATOM     56  O5S SGN d  62      22.918  35.367  35.059  0.00  0.00    -0.572 OA
ATOM     57  O6S SGN d  62      22.558  37.112  36.590  0.00  0.00    -0.572 OA
ENDBRANCH  53  54
ENDBRANCH  52  53
ENDBRANCH  22  52
ENDBRANCH  17  18
ENDBRANCH  11  17
BRANCH  12  58
ATOM     58  O3  IDS d  63      18.622  37.472  44.281  0.00  0.00    -0.390 OA
ATOM     59  H   IDS d  63      18.369  38.339  43.926  0.00  0.00     0.210 HD
ENDBRANCH  12  58
BRANCH  13  60
ATOM     60  O2  IDS d  63      18.742  34.134  43.021  0.00  0.00    -0.244 OA
BRANCH  60  61
ATOM     61  S   IDS d  63      19.218  32.512  43.542  0.00  0.00     0.252 S 
ATOM     62  O3S IDS d  63      20.602  32.377  43.893  0.00  0.00    -0.572 OA
ATOM     63  O1S IDS d  63      18.878  31.632  42.439  0.00  0.00    -0.572 OA
ATOM     64  O2S IDS d  63      18.447  32.223  44.744  0.00  0.00    -0.572 OA
ENDBRANCH  60  61
ENDBRANCH  13  60
ENDBRANCH   7   8
ENDBRANCH   4   7
BRANCH   3  65
ATOM     65  O3  SGN d  64      22.342  38.214  44.229  0.00  0.00    -0.391 OA
ATOM     66  H   SGN d  64      22.599  39.105  43.945  0.00  0.00     0.210 HD
ENDBRANCH   3  65
BRANCH   5  67
ATOM     67  C6  SGN d  64      20.851  35.591  48.114  0.00  0.00     0.227 C 
BRANCH  67  68
ATOM     68  O6  SGN d  64      21.774  35.125  49.088  0.00  0.00    -0.254 OA
BRANCH  68  69
ATOM     69  S2  SGN d  64      23.316  34.444  48.506  0.00  0.00     0.251 S 
ATOM     70  O4S SGN d  64      23.009  33.320  47.660  0.00  0.00    -0.572 OA
ATOM     71  O5S SGN d  64      24.085  34.017  49.644  0.00  0.00    -0.572 OA
ATOM     72  O6S SGN d  64      24.078  35.425  47.761  0.00  0.00    -0.572 OA
ENDBRANCH  68  69
ENDBRANCH  67  68
ENDBRANCH   5  67
BRANCH   6  73
ATOM     73  N   SGN d  64      23.634  39.975  45.867  0.00  0.00    -0.210 NA
ATOM     74  H   SGN d  64      22.779  40.463  45.601  0.00  0.00     0.140 HD
BRANCH  73  75
ATOM     75  S1  SGN d  64      24.770  40.165  44.521  0.00  0.00     0.156 S 
BRANCH  75  76
ATOM     76  O2S SGN d  64      24.564  41.510  44.059  0.00  0.00    -0.296 OA
ATOM     77  H   SGN d  64      24.761  42.132  44.777  0.00  0.00     0.231 HD
ENDBRANCH  75  76
BRANCH  75  78
ATOM     78  O1S SGN d  64      26.141  39.970  44.965  0.00  0.00    -0.296 OA
ATOM     79  H   SGN d  64      26.339  40.590  45.684  0.00  0.00     0.231 HD
ENDBRANCH  75  78
BRANCH  75  80
ATOM     80  O3S SGN d  64      24.474  39.236  43.445  0.00  0.00    -0.296 OA
ATOM     81  H   SGN d  64      23.560  39.366  43.148  0.00  0.00     0.231 HD
ENDBRANCH  75  80
ENDBRANCH  73  75
ENDBRANCH   6  73
BRANCH   1  82
ATOM     82  O4  IDS d  65      21.905  39.697  47.946  0.00  0.00    -0.348 OA
BRANCH  82  83
ATOM     83  C4  IDS d  65      22.160  40.946  48.594  0.00  0.00     0.195 C 
ATOM     84  C3  IDS d  65      22.431  42.359  48.029  0.00  0.00     0.185 C 
ATOM     85  C2  IDS d  65      22.246  43.384  49.102  0.00  0.00     0.231 C 
ATOM     86  C1  IDS d  65      20.763  43.363  49.580  0.00  0.00     0.294 C 
ATOM     87  O5  IDS d  65      20.180  42.038  49.685  0.00  0.00    -0.340 OA
ATOM     88  C5  IDS d  65      21.118  40.921  49.767  0.00  0.00     0.257 C 
BRANCH  84  89
ATOM     89  O3  IDS d  65      23.752  42.409  47.591  0.00  0.00    -0.390 OA
ATOM     90  H   IDS d  65      23.887  41.748  46.894  0.00  0.00     0.210 HD
ENDBRANCH  84  89
BRANCH  85  91
ATOM     91  O2  IDS d  65      22.560  44.638  48.516  0.00  0.00    -0.244 OA
BRANCH  91  92
ATOM     92  S   IDS d  65      24.265  45.142  48.662  0.00  0.00     0.252 S 
ATOM     93  O2S IDS d  65      24.898  44.187  49.550  0.00  0.00    -0.572 OA
ATOM     94  O1S IDS d  65      24.911  45.109  47.351  0.00  0.00    -0.572 OA
ATOM     95  O3S IDS d  65      24.357  46.478  49.244  0.00  0.00    -0.572 OA
ENDBRANCH  91  92
ENDBRANCH  85  91
BRANCH  86  96
ATOM     96  O4  SGN d  66      21.285  43.331  50.900  0.00  0.00    -0.348 OA
BRANCH  96  97
ATOM     97  C4  SGN d  66      21.080  43.285  52.390  0.00  0.00     0.186 C 
ATOM     98  C3  SGN d  66      20.654  41.888  52.872  0.00  0.00     0.173 C 
ATOM     99  C2  SGN d  66      20.485  41.919  54.393  0.00  0.00     0.157 C 
ATOM    100  C1  SGN d  66      21.807  42.346  55.063  0.00  0.00     0.278 C 
ATOM    101  O5  SGN d  66      22.150  43.682  54.565  0.00  0.00    -0.350 OA
ATOM    102  C5  SGN d  66      22.352  43.756  53.112  0.00  0.00     0.181 C 
BRANCH  98 103
ATOM    103  O3  SGN d  66      19.387  41.559  52.304  0.00  0.00    -0.391 OA
ATOM    104  H   SGN d  66      18.730  42.218  52.577  0.00  0.00     0.210 HD
ENDBRANCH  98 103
BRANCH  99 105
ATOM    105  N   SGN d  66      20.072  40.579  54.833  0.00  0.00    -0.210 NA
ATOM    106  H   SGN d  66      20.450  39.927  54.146  0.00  0.00     0.140 HD
BRANCH 105 107
ATOM    107  S1  SGN d  66      20.503  39.918  56.432  0.00  0.00     0.156 S 
BRANCH 107 108
ATOM    108  O1S SGN d  66      19.878  38.609  56.552  0.00  0.00    -0.296 OA
ATOM    109  H   SGN d  66      20.096  38.224  57.415  0.00  0.00     0.231 HD
ENDBRANCH 107 108
BRANCH 107 110
ATOM    110  O2S SGN d  66      19.991  40.844  57.423  0.00  0.00    -0.296 OA
ATOM    111  H   SGN d  66      20.206  40.519  58.311  0.00  0.00     0.231 HD
ENDBRANCH 107 110
BRANCH 107 112
ATOM    112  O3S SGN d  66      21.938  39.731  56.583  0.00  0.00    -0.296 OA
ATOM    113  H   SGN d  66      22.126  39.371  57.464  0.00  0.00     0.231 HD
ENDBRANCH 107 112
ENDBRANCH 105 107
ENDBRANCH  99 105
BRANCH 100 114
ATOM    114  O1  SGN d  66      22.809  41.372  54.711  0.00  0.00    -0.369 OA
ATOM    115  H   SGN d  66      22.887  41.323  53.745  0.00  0.00     0.212 HD
ENDBRANCH 100 114
BRANCH 102 116
ATOM    116  C6  SGN d  66      22.714  45.188  52.676  0.00  0.00     0.227 C 
BRANCH 116 117
ATOM    117  O6  SGN d  66      21.649  46.109  53.009  0.00  0.00    -0.254 OA
BRANCH 117 118
ATOM    118  S2  SGN d  66      20.828  47.012  51.713  0.00  0.00     0.251 S 
ATOM    119  O6S SGN d  66      19.864  47.912  52.314  0.00  0.00    -0.572 OA
ATOM    120  O5S SGN d  66      21.841  47.783  50.998  0.00  0.00    -0.572 OA
ATOM    121  O4S SGN d  66      20.133  46.101  50.814  0.00  0.00    -0.572 OA
ENDBRANCH 117 118
ENDBRANCH 116 117
ENDBRANCH 102 116
ENDBRANCH  96  97
ENDBRANCH  86  96
BRANCH  88 122
ATOM    122  C6  IDS d  65      20.293  39.610  49.860  0.00  0.00     0.206 C 
ATOM    123  O61 IDS d  65      20.949  38.539  49.864  0.00  0.00    -0.646 OA
ATOM    124  O62 IDS d  65      19.030  39.676  49.949  0.00  0.00    -0.646 OA
ENDBRANCH  88 122
ENDBRANCH  82  83
ENDBRANCH   1  82
TORSDOF 50
