REMARK  0 active torsions:
REMARK  status: ('A' for Active; 'I' for Inactive)
REMARK       I    between atoms: C3_2  and  O3_10 
REMARK       I    between atoms: O3_3  and  C3_17 
REMARK       I    between atoms: O3_3  and  C1_23 
REMARK       I    between atoms: C6_4  and  C5_26 
REMARK       I    between atoms: C6_4  and  O6_50 
REMARK       I    between atoms: C5_6  and  C6_9 
REMARK       I    between atoms: C2_7  and  O2_41 
REMARK       I    between atoms: C6_9  and  O6B_11 
REMARK       I    between atoms: O3_10  and  C1_28 
REMARK       I    between atoms: O2_15  and  C2_44 
REMARK       I    between atoms: C2_16  and  N2_42 
REMARK       I    between atoms: O6_18  and  C6_51 
REMARK       I    between atoms: C2_19  and  N2_39 
REMARK       I    between atoms: C3_20  and  O3_49 
REMARK       I    between atoms: C4_21  and  O4_45 
REMARK       I    between atoms: C6_22  and  C5_43 
REMARK       I    between atoms: C6_22  and  O6B_46 
REMARK       I    between atoms: O4_24  and  C4_48 
REMARK       I    between atoms: O1_27  and  C1_29 
REMARK       I    between atoms: C5_30  and  C6_51 
REMARK       I    between atoms: C7_32  and  N2_39 
REMARK       I    between atoms: C7_33  and  N2_42 
REMARK       I    between atoms: O3_34  and  C3_35 
REMARK       I    between atoms: C4_37  and  O4_47 
REMARK       I    between atoms: O4_38  and  C4_52 
REMARK       I    between atoms: O4_38  and  C1_40 
ROOT
ATOM      1  O5  BDP d1003       5.046  -9.817  29.988  0.00  0.00    -0.340 OA
ATOM      2  O6A BDP d1003       3.679  -9.822  26.769  0.00  0.00    -0.648 OA
ATOM      3  C2  BDP d1003       3.827 -10.582  31.927  0.00  0.00     0.204 C 
ATOM      4  C6  BDP d1003       4.051  -9.280  27.837  0.00  0.00     0.172 C 
ATOM      5  C1  BDP d1003       5.153 -10.602  31.193  0.00  0.00     0.292 C 
ATOM      6  O3  BDP d1003       1.490 -11.087  31.576  0.00  0.00    -0.390 OA
ATOM      7  C3  BDP d1003       2.770 -11.090  30.896  0.00  0.00     0.183 C 
ATOM      8  C4  BDP d1003       2.751 -10.170  29.672  0.00  0.00     0.189 C 
ATOM      9  O2  BDP d1003       3.935 -11.403  33.118  0.00  0.00    -0.388 OA
ATOM     10  C5  BDP d1003       3.970 -10.184  29.052  0.00  0.00     0.253 C 
ATOM     11  O6B BDP d1003       4.490  -8.127  28.064  0.00  0.00    -0.774 OA
ATOM     12  O4  BDP d1003       1.751 -10.547  28.627  0.00  0.00    -0.390 OA
ATOM     13  H   BDP d1003       1.531 -11.677  32.345  0.00  0.00     0.210 HD
ATOM     14  H   BDP d1003       4.199 -12.302  32.868  0.00  0.00     0.210 HD
ATOM     15  H   BDP d1003       4.726  -7.879  28.936  0.00  0.00     0.167 HD
ATOM     16  H   BDP d1003       1.977 -11.417  28.262  0.00  0.00     0.210 HD
ATOM     17  C3  NAG d1002       7.502 -10.121  31.425  0.00  0.00     0.183 C 
ATOM     18  C6  NAG d1002      10.118  -7.263  30.814  0.00  0.00     0.198 C 
ATOM     19  O3  NAG d1002       6.185 -10.136  32.008  0.00  0.00    -0.348 OA
ATOM     20  O7  NAG d1002       6.834 -12.343  34.358  0.00  0.00    -0.274 OA
ATOM     21  C2  NAG d1002       8.434 -11.045  32.244  0.00  0.00     0.171 C 
ATOM     22  C4  NAG d1002       8.051  -8.666  31.447  0.00  0.00     0.180 C 
ATOM     23  C5  NAG d1002       9.489  -8.671  30.803  0.00  0.00     0.179 C 
ATOM     24  C8  NAG d1002       6.613 -14.341  33.078  0.00  0.00     0.117 C 
ATOM     25  C7  NAG d1002       7.100 -12.949  33.325  0.00  0.00     0.214 C 
ATOM     26  O5  NAG d1002      10.404  -9.584  31.564  0.00  0.00    -0.349 OA
ATOM     27  C1  NAG d1002       9.857 -11.019  31.583  0.00  0.00     0.286 C 
ATOM     28  N2  NAG d1002       7.858 -12.448  32.243  0.00  0.00    -0.349 N 
ATOM     29  O4  NAG d1002       7.192  -7.785  30.681  0.00  0.00    -0.390 OA
ATOM     30  O6  NAG d1002      10.326  -6.751  32.144  0.00  0.00    -0.398 OA
ATOM     31  H   NAG d1002       8.017 -13.028  31.464  0.00  0.00     0.163 HD
ATOM     32  H   NAG d1002       7.151  -8.092  29.762  0.00  0.00     0.210 HD
ATOM     33  H   NAG d1002       9.472  -6.672  32.597  0.00  0.00     0.209 HD
ATOM     34  O3  NAG d1000      16.061 -13.456  32.143  0.00  0.00    -0.348 OA
ATOM     35  C8  NAG d1000      18.707 -11.022  34.771  0.00  0.00     0.117 C 
ATOM     36  C3  NAG d1000      16.557 -14.664  32.802  0.00  0.00     0.183 C 
ATOM     37  O6  NAG d1000      16.208 -19.540  32.325  0.00  0.00    -0.398 OA
ATOM     38  C2  NAG d1000      18.059 -14.477  33.167  0.00  0.00     0.171 C 
ATOM     39  O4  NAG d1000      15.044 -16.125  31.449  0.00  0.00    -0.390 OA
ATOM     40  O5  NAG d1000      18.391 -17.009  32.972  0.00  0.00    -0.349 OA
ATOM     41  O1  NAG d1000      19.906 -15.672  34.215  0.00  0.00    -0.369 OA
ATOM     42  C1  NAG d1000      18.546 -15.782  33.871  0.00  0.00     0.282 C 
ATOM     43  C5  NAG d1000      16.964 -17.187  32.565  0.00  0.00     0.179 C 
ATOM     44  C7  NAG d1000      18.605 -12.014  33.639  0.00  0.00     0.214 C 
ATOM     45  N2  NAG d1000      18.237 -13.297  34.103  0.00  0.00    -0.349 N 
ATOM     46  C4  NAG d1000      16.427 -15.896  31.820  0.00  0.00     0.180 C 
ATOM     47  C6  NAG d1000      16.895 -18.446  31.679  0.00  0.00     0.198 C 
ATOM     48  O7  NAG d1000      18.822 -11.696  32.456  0.00  0.00    -0.274 OA
ATOM     49  H   NAG d1000      16.190 -20.306  31.731  0.00  0.00     0.209 HD
ATOM     50  H   NAG d1000      14.698 -15.343  30.991  0.00  0.00     0.210 HD
ATOM     51  H   NAG d1000      20.033 -14.899  34.787  0.00  0.00     0.212 HD
ATOM     52  H   NAG d1000      18.091 -13.430  35.068  0.00  0.00     0.163 HD
ATOM     53  C5  BDP d1001      12.231 -13.713  31.793  0.00  0.00     0.253 C 
ATOM     54  O5  BDP d1001      13.839 -13.832  31.717  0.00  0.00    -0.340 OA
ATOM     55  C6  BDP d1001      11.570 -14.462  31.067  0.00  0.00     0.172 C 
ATOM     56  O6B BDP d1001      12.040 -15.624  30.940  0.00  0.00    -0.774 OA
ATOM     57  O6A BDP d1001      10.532 -13.977  30.533  0.00  0.00    -0.648 OA
ATOM     58  O2  BDP d1001      15.470 -10.788  33.166  0.00  0.00    -0.388 OA
ATOM     59  C3  BDP d1001      13.084 -11.250  32.806  0.00  0.00     0.183 C 
ATOM     60  C1  BDP d1001      14.776 -13.048  32.515  0.00  0.00     0.292 C 
ATOM     61  O4  BDP d1001      10.728 -11.851  32.303  0.00  0.00    -0.348 OA
ATOM     62  C2  BDP d1001      14.529 -11.526  32.345  0.00  0.00     0.204 C 
ATOM     63  O3  BDP d1001      12.805  -9.838  32.688  0.00  0.00    -0.390 OA
ATOM     64  C4  BDP d1001      12.119 -12.038  31.894  0.00  0.00     0.195 C 
ATOM     65  H   BDP d1001      12.824 -15.864  31.393  0.00  0.00     0.167 HD
ATOM     66  H   BDP d1001      15.315  -9.836  33.059  0.00  0.00     0.210 HD
ATOM     67  H   BDP d1001      12.918  -9.562  31.765  0.00  0.00     0.210 HD
ENDROOT
TORSDOF 24
