REMARK  0 active torsions:
REMARK  status: ('A' for Active; 'I' for Inactive)
REMARK       I    between atoms: O4_25  and  C4_404 
REMARK       I    between atoms: O4_26  and  O4_41 
REMARK       I    between atoms: O4_27  and  O4_37 
REMARK       I    between atoms: O4_27  and  O4_34 
REMARK       I    between atoms: O4_30  and  O4_31 
REMARK       I    between atoms: O4_30  and  O4_42 
REMARK       I    between atoms: O4_31  and  O4_38 
REMARK       I    between atoms: O4_32  and  C4_405 
REMARK       I    between atoms: O4_32  and  O4_34 
REMARK       I    between atoms: O4_33  and  O4_37 
REMARK       I    between atoms: C2_50  and  C2_52 
REMARK       I    between atoms: C2_56  and  C1_737 
REMARK       I    between atoms: C2_63  and  C1_737 
REMARK       I    between atoms: O4_65  and  C4_862 
REMARK       I    between atoms: O4_65  and  C1_424 
REMARK       I    between atoms: O4_66  and  O4_69 
REMARK       I    between atoms: O4_69  and  O4_77 
REMARK       I    between atoms: O4_70  and  O4_81 
REMARK       I    between atoms: O4_73  and  O4_75 
REMARK       I    between atoms: O4_74  and  O4_75 
REMARK       I    between atoms: O4_80  and  C4_874 
REMARK       I    between atoms: O4_81  and  O4_82 
REMARK       I    between atoms: O4_82  and  C4_876 
REMARK       I    between atoms: O2S_85  and  S_1112 
REMARK       I    between atoms: O2S_85  and  S_1127 
REMARK       I    between atoms: O2S_87  and  O1S_1367 
REMARK       I    between atoms: O2S_94  and  S_1119 
REMARK       I    between atoms: O2S_99  and  S_1127 
REMARK       I    between atoms: O2S_99  and  S_1128 
REMARK       I    between atoms: O2S_101  and  S_1121 
REMARK       I    between atoms: O6S_108  and  O6_589 
REMARK       I    between atoms: O6S_108  and  O6S_111 
REMARK       I    between atoms: O6S_112  and  O6S_118 
REMARK       I    between atoms: O6S_112  and  O6_588 
REMARK       I    between atoms: O6S_118  and  S2_885 
REMARK       I    between atoms: O6S_121  and  O4S_776 
REMARK       I    between atoms: O6S_121  and  O5S_664 
REMARK       I    between atoms: O6S_122  and  O4S_776 
REMARK       I    between atoms: N9_125  and  S19_590 
REMARK       I    between atoms: N9_125  and  C29_515 
REMARK       I    between atoms: N9_126  and  N9_142 
REMARK       I    between atoms: N9_127  and  N9_130 
REMARK       I    between atoms: N9_127  and  N9_137 
REMARK       I    between atoms: N9_128  and  N9_132 
REMARK       I    between atoms: N9_128  and  N9_134 
REMARK       I    between atoms: N9_129  and  N9_141 
REMARK       I    between atoms: N9_129  and  N9_144 
REMARK       I    between atoms: N9_130  and  N9_134 
REMARK       I    between atoms: N9_131  and  N9_134 
REMARK       I    between atoms: N9_132  and  N9_144 
REMARK       I    between atoms: N9_133  and  N9_143 
REMARK       I    between atoms: O1S_209  and  S1_1610 
REMARK       I    between atoms: O1S_209  and  O2S_1349 
REMARK       I    between atoms: O1S_222  and  O1S_223 
REMARK       I    between atoms: O1S_223  and  O1S_225 
REMARK       I    between atoms: O1S_225  and  O1S_227 
REMARK       I    between atoms: O1S_226  and  O1S_228 
REMARK       I    between atoms: O1S_227  and  O2S_1349 
REMARK       I    between atoms: O1S_228  and  O3S_1604 
REMARK       I    between atoms: O4S_264  and  O4S_269 
REMARK       I    between atoms: O4S_264  and  O4S_271 
REMARK       I    between atoms: O4S_273  and  O4S_278 
REMARK       I    between atoms: C6_280  and  C5_367 
REMARK       I    between atoms: C6_280  and  O61_300 
REMARK       I    between atoms: C6_280  and  O62_1012 
REMARK       I    between atoms: C6_290  and  O61_307 
REMARK       I    between atoms: C6_297  and  O62_1017 
REMARK       I    between atoms: O61_300  and  O61_314 
REMARK       I    between atoms: O61_303  and  O61_310 
REMARK       I    between atoms: O61_304  and  O61_306 
REMARK       I    between atoms: O61_305  and  O61_309 
REMARK       I    between atoms: O61_306  and  O61_307 
REMARK       I    between atoms: O61_308  and  O61_316 
REMARK       I    between atoms: O61_309  and  O61_310 
REMARK       I    between atoms: O61_316  and  O62_1015 
REMARK       I    between atoms: O61_318  and  O62_1015 
REMARK       I    between atoms: O61_318  and  O61_319 
REMARK       I    between atoms: O61_319  and  O62_1025 
REMARK       I    between atoms: C19_320  and  O2_922 
REMARK       I    between atoms: C19_321  and  C19_326 
REMARK       I    between atoms: C19_324  and  C19_326 
REMARK       I    between atoms: C19_324  and  C19_334 
REMARK       I    between atoms: C19_333  and  C19_338 
REMARK       I    between atoms: C19_337  and  C19_338 
REMARK       I    between atoms: C19_337  and  C19_339 
REMARK       I    between atoms: C5_371  and  C5_378 
REMARK       I    between atoms: C5_383  and  C5_384 
REMARK       I    between atoms: C5_383  and  C5_386 
REMARK       I    between atoms: C5_386  and  O5_489 
REMARK       I    between atoms: C4_405  and  C4_421 
REMARK       I    between atoms: C4_408  and  C4_416 
REMARK       I    between atoms: C4_408  and  C4_412 
REMARK       I    between atoms: C4_409  and  C4_421 
REMARK       I    between atoms: C4_412  and  C4_415 
REMARK       I    between atoms: C1_425  and  C1_428 
REMARK       I    between atoms: C1_429  and  C1_436 
REMARK       I    between atoms: C1_429  and  C1_440 
REMARK       I    between atoms: C1_433  and  C1_436 
REMARK       I    between atoms: O5_476  and  O5_479 
REMARK       I    between atoms: O5_477  and  C1_796 
REMARK       I    between atoms: O5_479  and  O5_491 
REMARK       I    between atoms: O5_482  and  C1_796 
REMARK       I    between atoms: O5_485  and  O5_487 
REMARK       I    between atoms: O5_487  and  O5_492 
REMARK       I    between atoms: O5_489  and  O5_493 
REMARK       I    between atoms: O5_491  and  O5_494 
REMARK       I    between atoms: O69_495  and  S29_1547 
REMARK       I    between atoms: O69_495  and  C69_1310 
REMARK       I    between atoms: O69_497  and  O6S_553 
REMARK       I    between atoms: O69_497  and  O69_505 
REMARK       I    between atoms: O69_499  and  O69_504 
REMARK       I    between atoms: O69_499  and  O69_511 
REMARK       I    between atoms: O69_500  and  O69_502 
REMARK       I    between atoms: O69_502  and  O69_510 
REMARK       I    between atoms: O69_503  and  O69_508 
REMARK       I    between atoms: O69_504  and  O69_510 
REMARK       I    between atoms: O69_506  and  O69_509 
REMARK       I    between atoms: O69_507  and  O69_511 
REMARK       I    between atoms: O69_508  and  C69_1317 
REMARK       I    between atoms: O69_509  and  C69_1325 
REMARK       I    between atoms: O69_512  and  O69_513 
REMARK       I    between atoms: C29_518  and  C29_521 
REMARK       I    between atoms: O6S_535  and  S29_1547 
REMARK       I    between atoms: O6S_535  and  O6S_538 
REMARK       I    between atoms: O6S_536  and  O6S_549 
REMARK       I    between atoms: O6S_536  and  O6S_540 
REMARK       I    between atoms: O6S_541  and  O6S_550 
REMARK       I    between atoms: O6S_549  and  S29_1562 
REMARK       I    between atoms: O6S_553  and  S29_1557 
REMARK       I    between atoms: O6_570  and  C6_1032 
REMARK       I    between atoms: O6_570  and  S2_882 
REMARK       I    between atoms: O6_572  and  C6_1047 
REMARK       I    between atoms: O6_577  and  C6_1047 
REMARK       I    between atoms: O6_578  and  C6_1048 
REMARK       I    between atoms: O6_578  and  O6_580 
REMARK       I    between atoms: O6_579  and  O6_580 
REMARK       I    between atoms: O6_579  and  O6_584 
REMARK       I    between atoms: O6_581  and  O6_582 
REMARK       I    between atoms: O6_582  and  O6_583 
REMARK       I    between atoms: O6_585  and  O6_586 
REMARK       I    between atoms: O6_585  and  S2_889 
REMARK       I    between atoms: O6_588  and  O6_589 
REMARK       I    between atoms: S19_593  and  S19_606 
REMARK       I    between atoms: S19_594  and  S19_609 
REMARK       I    between atoms: S19_594  and  S19_598 
REMARK       I    between atoms: S19_596  and  S19_606 
REMARK       I    between atoms: S19_603  and  S19_608 
REMARK       I    between atoms: S19_607  and  O2S_1185 
REMARK       I    between atoms: S19_607  and  S19_608 
REMARK       I    between atoms: S19_609  and  O2S_1181 
REMARK       I    between atoms: C5_610  and  C6_1032 
REMARK       I    between atoms: C5_615  and  C5_619 
REMARK       I    between atoms: C5_616  and  O5_1230 
REMARK       I    between atoms: C5_619  and  C5_620 
REMARK       I    between atoms: O59_633  and  O59_642 
REMARK       I    between atoms: O59_633  and  O59_644 
REMARK       I    between atoms: O59_636  and  O59_641 
REMARK       I    between atoms: O59_638  and  O59_648 
REMARK       I    between atoms: O59_640  and  O59_649 
REMARK       I    between atoms: O59_643  and  O59_646 
REMARK       I    between atoms: O59_644  and  O59_648 
REMARK       I    between atoms: O59_645  and  O59_649 
REMARK       I    between atoms: O59_646  and  O59_647 
REMARK       I    between atoms: O5S_664  and  S2_882 
REMARK       I    between atoms: O5S_667  and  O5S_674 
REMARK       I    between atoms: O5S_671  and  S2_894 
REMARK       I    between atoms: O5S_672  and  S2_896 
REMARK       I    between atoms: O5S_672  and  O5S_673 
REMARK       I    between atoms: O5S_673  and  O5S_674 
REMARK       I    between atoms: C3_702  and  O3_972 
REMARK       I    between atoms: C3_704  and  C3_707 
REMARK       I    between atoms: C3_707  and  C3_708 
REMARK       I    between atoms: C3_707  and  C3_719 
REMARK       I    between atoms: C3_708  and  C3_712 
REMARK       I    between atoms: C3_720  and  O3_989 
REMARK       I    between atoms: C3_720  and  O3_987 
REMARK       I    between atoms: C1_722  and  O2_922 
REMARK       I    between atoms: C1_730  and  C1_740 
REMARK       I    between atoms: C1_733  and  C1_734 
REMARK       I    between atoms: C1_734  and  O2_937 
REMARK       I    between atoms: O3S_747  and  O3S_751 
REMARK       I    between atoms: O4S_762  and  S2_882 
REMARK       I    between atoms: O4S_762  and  O4S_768 
REMARK       I    between atoms: O4S_764  and  S2_899 
REMARK       I    between atoms: O4S_780  and  S2_884 
REMARK       I    between atoms: O4S_780  and  O4S_781 
REMARK       I    between atoms: O4S_781  and  S2_889 
REMARK       I    between atoms: C1_782  and  O49_842 
REMARK       I    between atoms: C1_783  and  C1_799 
REMARK       I    between atoms: C1_783  and  C1_785 
REMARK       I    between atoms: C1_785  and  C1_795 
REMARK       I    between atoms: C1_787  and  C1_794 
REMARK       I    between atoms: C1_794  and  C1_800 
REMARK       I    between atoms: O2_802  and  C2_992 
REMARK       I    between atoms: O2_802  and  S_1112 
REMARK       I    between atoms: O2_805  and  O2_821 
REMARK       I    between atoms: O2_807  and  O2_811 
REMARK       I    between atoms: O2_811  and  O2_817 
REMARK       I    between atoms: O2_820  and  O2_821 
REMARK       I    between atoms: O49_842  and  C49_1192 
REMARK       I    between atoms: O49_843  and  O49_857 
REMARK       I    between atoms: O49_843  and  O49_845 
REMARK       I    between atoms: O49_844  and  O49_845 
REMARK       I    between atoms: O49_846  and  O49_859 
REMARK       I    between atoms: O49_847  and  O49_849 
REMARK       I    between atoms: O49_847  and  O49_851 
REMARK       I    between atoms: O49_850  and  O49_861 
REMARK       I    between atoms: O49_851  and  O49_852 
REMARK       I    between atoms: O49_853  and  O49_858 
REMARK       I    between atoms: O49_853  and  O49_855 
REMARK       I    between atoms: O49_859  and  O49_861 
REMARK       I    between atoms: C4_863  and  C4_879 
REMARK       I    between atoms: C4_864  and  C4_868 
REMARK       I    between atoms: C4_866  and  C4_867 
REMARK       I    between atoms: C4_866  and  C4_878 
REMARK       I    between atoms: C4_867  and  C4_874 
REMARK       I    between atoms: C4_869  and  C3_1169 
REMARK       I    between atoms: C4_869  and  C4_872 
REMARK       I    between atoms: C4_870  and  C4_872 
REMARK       I    between atoms: C4_876  and  C4_880 
REMARK       I    between atoms: C4_878  and  C4_879 
REMARK       I    between atoms: S2_884  and  S2_897 
REMARK       I    between atoms: S2_890  and  S2_895 
REMARK       I    between atoms: S2_894  and  S2_895 
REMARK       I    between atoms: S2_899  and  S2_897 
REMARK       I    between atoms: N_902  and  C2_1092 
REMARK       I    between atoms: N_902  and  S1_1610 
REMARK       I    between atoms: N_903  and  N_905 
REMARK       I    between atoms: N_904  and  N_911 
REMARK       I    between atoms: N_904  and  N_907 
REMARK       I    between atoms: N_905  and  N_906 
REMARK       I    between atoms: N_906  and  N_912 
REMARK       I    between atoms: N_907  and  N_920 
REMARK       I    between atoms: N_909  and  N_914 
REMARK       I    between atoms: N_909  and  N_910 
REMARK       I    between atoms: N_912  and  N_916 
REMARK       I    between atoms: N_912  and  N_921 
REMARK       I    between atoms: N_914  and  N_915 
REMARK       I    between atoms: N_918  and  C2_1100 
REMARK       I    between atoms: N_918  and  N_921 
REMARK       I    between atoms: N_919  and  N_920 
REMARK       I    between atoms: O2_924  and  O2_927 
REMARK       I    between atoms: O2_924  and  O2_926 
REMARK       I    between atoms: O2_925  and  O2_930 
REMARK       I    between atoms: O2_925  and  O2_931 
REMARK       I    between atoms: O2_926  and  O2_941 
REMARK       I    between atoms: O2_930  and  O2_934 
REMARK       I    between atoms: O2_933  and  O2_940 
REMARK       I    between atoms: O2_933  and  O2_941 
REMARK       I    between atoms: O3_976  and  O3_979 
REMARK       I    between atoms: O3_979  and  O3_980 
REMARK       I    between atoms: O3_984  and  O3_991 
REMARK       I    between atoms: O3_985  and  O3_990 
REMARK       I    between atoms: O3_988  and  O3_989 
REMARK       I    between atoms: C2_996  and  C2_1003 
REMARK       I    between atoms: C2_997  and  C2_1008 
REMARK       I    between atoms: C2_1003  and  C2_1005 
REMARK       I    between atoms: C2_1004  and  C3_1167 
REMARK       I    between atoms: C2_1005  and  C2_1009 
REMARK       I    between atoms: C2_1005  and  C3_1167 
REMARK       I    between atoms: C2_1006  and  C3_1167 
REMARK       I    between atoms: C2_1006  and  C2_1010 
REMARK       I    between atoms: O62_1012  and  O62_1020 
REMARK       I    between atoms: O62_1013  and  O62_1017 
REMARK       I    between atoms: O62_1013  and  O62_1014 
REMARK       I    between atoms: O62_1014  and  O62_1019 
REMARK       I    between atoms: O62_1016  and  O62_1023 
REMARK       I    between atoms: O62_1018  and  O62_1021 
REMARK       I    between atoms: O62_1018  and  O62_1024 
REMARK       I    between atoms: O62_1020  and  O62_1023 
REMARK       I    between atoms: O62_1022  and  O62_1025 
REMARK       I    between atoms: O62_1024  and  O62_1028 
REMARK       I    between atoms: O62_1027  and  O62_1029 
REMARK       I    between atoms: O62_1027  and  O62_1031 
REMARK       I    between atoms: O62_1028  and  O62_1030 
REMARK       I    between atoms: O62_1030  and  O62_1031 
REMARK       I    between atoms: C6_1037  and  C6_1038 
REMARK       I    between atoms: C6_1037  and  C6_1048 
REMARK       I    between atoms: C6_1038  and  C6_1041 
REMARK       I    between atoms: C6_1038  and  C6_1049 
REMARK       I    between atoms: C6_1039  and  C6_1042 
REMARK       I    between atoms: C6_1039  and  C6_1041 
REMARK       I    between atoms: C6_1042  and  C6_1047 
REMARK       I    between atoms: O1S_1055  and  O1S_1066 
REMARK       I    between atoms: O1S_1056  and  O1S_1070 
REMARK       I    between atoms: O1S_1056  and  O1S_1060 
REMARK       I    between atoms: O1S_1060  and  O1S_1064 
REMARK       I    between atoms: O1S_1065  and  O1S_1066 
REMARK       I    between atoms: C2_1095  and  C2_1096 
REMARK       I    between atoms: C2_1095  and  C2_1109 
REMARK       I    between atoms: C2_1097  and  C2_1109 
REMARK       I    between atoms: C2_1106  and  C2_1111 
REMARK       I    between atoms: C2_1108  and  C2_1111 
REMARK       I    between atoms: S_1112  and  S_1131 
REMARK       I    between atoms: S_1114  and  O1S_1351 
REMARK       I    between atoms: S_1125  and  S_1129 
REMARK       I    between atoms: S_1125  and  S_1131 
REMARK       I    between atoms: S_1128  and  S_1130 
REMARK       I    between atoms: C39_1132  and  O39_1290 
REMARK       I    between atoms: C39_1144  and  C39_1151 
REMARK       I    between atoms: C39_1148  and  C39_1149 
REMARK       I    between atoms: C39_1149  and  C39_1151 
REMARK       I    between atoms: C3_1152  and  O3_1459 
REMARK       I    between atoms: C3_1153  and  C3_1165 
REMARK       I    between atoms: C3_1153  and  C3_1160 
REMARK       I    between atoms: C3_1154  and  O3_1475 
REMARK       I    between atoms: C3_1154  and  C3_1155 
REMARK       I    between atoms: C3_1154  and  C3_1156 
REMARK       I    between atoms: C3_1155  and  C3_1169 
REMARK       I    between atoms: C3_1156  and  C3_1163 
REMARK       I    between atoms: C3_1160  and  C3_1168 
REMARK       I    between atoms: C3_1161  and  C3_1162 
REMARK       I    between atoms: C3_1162  and  C3_1168 
REMARK       I    between atoms: C3_1163  and  C3_1165 
REMARK       I    between atoms: O2S_1174  and  O2S_1183 
REMARK       I    between atoms: O2S_1179  and  O2S_1180 
REMARK       I    between atoms: O2S_1181  and  O2S_1185 
REMARK       I    between atoms: C49_1196  and  C49_1197 
REMARK       I    between atoms: C49_1196  and  C49_1200 
REMARK       I    between atoms: C49_1197  and  C49_1199 
REMARK       I    between atoms: C49_1200  and  C49_1204 
REMARK       I    between atoms: C49_1204  and  C49_1206 
REMARK       I    between atoms: C49_1206  and  C49_1208 
REMARK       I    between atoms: C49_1208  and  C49_1210 
REMARK       I    between atoms: O5_1213  and  O5_1223 
REMARK       I    between atoms: O5_1213  and  O5_1216 
REMARK       I    between atoms: O5_1216  and  O5_1224 
REMARK       I    between atoms: O5_1217  and  O5_1229 
REMARK       I    between atoms: O5_1218  and  O5_1221 
REMARK       I    between atoms: O5_1218  and  O5_1223 
REMARK       I    between atoms: O5_1219  and  O5_1221 
REMARK       I    between atoms: O5_1227  and  O5_1229 
REMARK       I    between atoms: C59_1232  and  C69_1310 
REMARK       I    between atoms: C59_1237  and  C59_1244 
REMARK       I    between atoms: O39_1291  and  O39_1301 
REMARK       I    between atoms: O39_1292  and  O39_1297 
REMARK       I    between atoms: O39_1293  and  O39_1302 
REMARK       I    between atoms: O39_1294  and  O39_1295 
REMARK       I    between atoms: O39_1295  and  O39_1307 
REMARK       I    between atoms: O39_1296  and  O39_1299 
REMARK       I    between atoms: O39_1298  and  O39_1303 
REMARK       I    between atoms: O39_1299  and  O39_1306 
REMARK       I    between atoms: O39_1300  and  O39_1302 
REMARK       I    between atoms: O39_1300  and  O39_1304 
REMARK       I    between atoms: O39_1301  and  O39_1303 
REMARK       I    between atoms: O39_1308  and  O39_1309 
REMARK       I    between atoms: C69_1314  and  C69_1321 
REMARK       I    between atoms: C69_1314  and  C69_1320 
REMARK       I    between atoms: C69_1314  and  C69_1316 
REMARK       I    between atoms: C69_1320  and  C69_1325 
REMARK       I    between atoms: O2S_1335  and  O2S_1339 
REMARK       I    between atoms: O2S_1335  and  O2S_1348 
REMARK       I    between atoms: O2S_1340  and  O2S_1344 
REMARK       I    between atoms: O1S_1353  and  O1S_1368 
REMARK       I    between atoms: O1S_1353  and  O1S_1363 
REMARK       I    between atoms: O1S_1362  and  O1S_1366 
REMARK       I    between atoms: O1S_1363  and  O1S_1366 
REMARK       I    between atoms: O1S_1368  and  O1S_1369 
REMARK       I    between atoms: O5S_1406  and  S29_1547 
REMARK       I    between atoms: O5S_1406  and  O5S_1422 
REMARK       I    between atoms: O5S_1412  and  O5S_1418 
REMARK       I    between atoms: O5S_1418  and  O5S_1421 
REMARK       I    between atoms: O5S_1424  and  S29_1562 
REMARK       I    between atoms: O3_1460  and  O3_1462 
REMARK       I    between atoms: O3_1462  and  O3_1476 
REMARK       I    between atoms: O3_1463  and  O3_1467 
REMARK       I    between atoms: O3_1466  and  O3_1468 
REMARK       I    between atoms: O3_1467  and  O3_1477 
REMARK       I    between atoms: O3_1469  and  O3_1474 
REMARK       I    between atoms: O3_1470  and  O3_1475 
REMARK       I    between atoms: O3_1471  and  O3_1474 
REMARK       I    between atoms: O3_1473  and  O3_1477 
REMARK       I    between atoms: O3_1473  and  O3_1478 
REMARK       I    between atoms: O3S_1528  and  O3S_1545 
REMARK       I    between atoms: O3S_1529  and  O3S_1533 
REMARK       I    between atoms: O3S_1529  and  O3S_1530 
REMARK       I    between atoms: O3S_1530  and  O3S_1544 
REMARK       I    between atoms: O3S_1533  and  O3S_1537 
REMARK       I    between atoms: O3S_1535  and  O3S_1540 
REMARK       I    between atoms: O3S_1538  and  O3S_1540 
REMARK       I    between atoms: O3S_1544  and  O3S_1545 
REMARK       I    between atoms: S29_1547  and  S29_1561 
REMARK       I    between atoms: S29_1550  and  S29_1553 
REMARK       I    between atoms: S29_1551  and  S29_1558 
REMARK       I    between atoms: S29_1558  and  S29_1565 
REMARK       I    between atoms: S29_1560  and  S29_1565 
REMARK       I    between atoms: S29_1560  and  S29_1561 
REMARK       I    between atoms: O3S_1590  and  S1_1610 
REMARK       I    between atoms: O3S_1601  and  O3S_1604 
REMARK       I    between atoms: S1_1612  and  S1_1614 
REMARK       I    between atoms: S1_1613  and  S1_1614 
REMARK       I    between atoms: S1_1613  and  S1_1623 
ROOT
ATOM      1  O4  SGN d 203     -33.807  39.040  38.570  0.00  0.00    -0.411 OA
ATOM      2  H   SGN d 203     -32.837  39.040  38.570  0.00  0.00     0.205 HD
ATOM      3  H   SGN d 203     -34.130  39.697  37.934  0.00  0.00     0.205 HD
ENDROOT
TORSDOF 392
