REMARK  22 active torsions:
REMARK  status: ('A' for Active; 'I' for Inactive)
REMARK    1 I    between atoms: C1_1  and  O4_10 
REMARK    2 I    between atoms: C6_3  and  C5_23 
REMARK    3 I    between atoms: C6_3  and  O6_37 
REMARK    4 I    between atoms: C6_4  and  C5_16 
REMARK    5 I    between atoms: C3_5  and  O3_21 
REMARK    6 I    between atoms: O4_7  and  C4_42 
REMARK    7 I    between atoms: O3_8  and  C3_29 
REMARK    8 I    between atoms: O3_8  and  C1_14 
REMARK    9 I    between atoms: O4_10  and  C4_51 
REMARK   10 I    between atoms: O4_11  and  C4_20 
REMARK   11 I    between atoms: C2_12  and  N2_52 
REMARK   12 I    between atoms: O6_13  and  C6_27 
REMARK   13 I    between atoms: O2_18  and  C2_19 
REMARK   14 I    between atoms: O4_22  and  C4_30 
REMARK   15 I    between atoms: C2_26  and  N2_35 
REMARK   16 I    between atoms: C6_27  and  C5_48 
REMARK   17 I    between atoms: O2_28  and  C2_34 
REMARK   18 I    between atoms: C6_31  and  C5_36 
REMARK      I    between atoms: N2_35  and  C7_44 
REMARK   19 I    between atoms: O1_38  and  C1_39 
REMARK   20 I    between atoms: O3_40  and  C3_46 
REMARK      I    between atoms: C7_41  and  N2_52 
REMARK   21 I    between atoms: C1_45  and  O3_49 
REMARK   22 I    between atoms: O3_49  and  C3_53 
ROOT
ATOM      1  O4  BDP d1001      10.728 -11.851  32.303  0.00  0.00    -0.348 OA
ENDROOT
BRANCH   1   2
ATOM      2  C1  NAG d1002       9.857 -11.019  31.583  0.00  0.00     0.286 C 
ATOM      3  C2  NAG d1002       8.434 -11.045  32.244  0.00  0.00     0.171 C 
ATOM      4  C3  NAG d1002       7.502 -10.121  31.425  0.00  0.00     0.183 C 
ATOM      5  C4  NAG d1002       8.051  -8.666  31.447  0.00  0.00     0.180 C 
ATOM      6  C5  NAG d1002       9.489  -8.671  30.803  0.00  0.00     0.179 C 
ATOM      7  O5  NAG d1002      10.404  -9.584  31.564  0.00  0.00    -0.349 OA
BRANCH   3   8
ATOM      8  N2  NAG d1002       7.858 -12.448  32.243  0.00  0.00    -0.349 N 
ATOM      9  C7  NAG d1002       7.100 -12.949  33.325  0.00  0.00     0.214 C 
ATOM     10  O7  NAG d1002       6.834 -12.343  34.358  0.00  0.00    -0.274 OA
ATOM     11  C8  NAG d1002       6.613 -14.341  33.078  0.00  0.00     0.117 C 
ATOM     12  H   NAG d1002       8.017 -13.028  31.464  0.00  0.00     0.163 HD
ENDBRANCH   3   8
BRANCH   4  13
ATOM     13  O3  NAG d1002       6.185 -10.136  32.008  0.00  0.00    -0.348 OA
BRANCH  13  14
ATOM     14  C1  BDP d1003       5.153 -10.602  31.193  0.00  0.00     0.292 C 
ATOM     15  C2  BDP d1003       3.827 -10.582  31.927  0.00  0.00     0.204 C 
ATOM     16  C3  BDP d1003       2.770 -11.090  30.896  0.00  0.00     0.183 C 
ATOM     17  C4  BDP d1003       2.751 -10.170  29.672  0.00  0.00     0.189 C 
ATOM     18  C5  BDP d1003       3.970 -10.184  29.052  0.00  0.00     0.256 C 
ATOM     19  O5  BDP d1003       5.046  -9.817  29.988  0.00  0.00    -0.340 OA
BRANCH  15  20
ATOM     20  O2  BDP d1003       3.935 -11.403  33.118  0.00  0.00    -0.388 OA
ATOM     21  H   BDP d1003       3.090 -11.395  33.594  0.00  0.00     0.210 HD
ENDBRANCH  15  20
BRANCH  16  22
ATOM     22  O3  BDP d1003       1.490 -11.087  31.576  0.00  0.00    -0.390 OA
ATOM     23  H   BDP d1003       1.292 -10.190  31.888  0.00  0.00     0.210 HD
ENDBRANCH  16  22
BRANCH  17  24
ATOM     24  O4  BDP d1003       1.751 -10.547  28.627  0.00  0.00    -0.390 OA
ATOM     25  H   BDP d1003       0.863 -10.552  29.017  0.00  0.00     0.210 HD
ENDBRANCH  17  24
BRANCH  18  26
ATOM     26  C6  BDP d1003       4.051  -9.280  27.837  0.00  0.00     0.206 C 
ATOM     27  O6A BDP d1003       3.679  -9.822  26.769  0.00  0.00    -0.646 OA
ATOM     28  O6B BDP d1003       4.490  -8.127  28.064  0.00  0.00    -0.646 OA
ENDBRANCH  18  26
ENDBRANCH  13  14
ENDBRANCH   4  13
BRANCH   5  29
ATOM     29  O4  NAG d1002       7.192  -7.785  30.681  0.00  0.00    -0.390 OA
ATOM     30  H   NAG d1002       6.305  -7.778  31.073  0.00  0.00     0.210 HD
ENDBRANCH   5  29
BRANCH   6  31
ATOM     31  C6  NAG d1002      10.118  -7.263  30.814  0.00  0.00     0.198 C 
BRANCH  31  32
ATOM     32  O6  NAG d1002      10.326  -6.751  32.144  0.00  0.00    -0.398 OA
ATOM     33  H   NAG d1002      10.722  -5.867  32.092  0.00  0.00     0.209 HD
ENDBRANCH  31  32
ENDBRANCH   6  31
ENDBRANCH   1   2
BRANCH   1  34
ATOM     34  C4  BDP d1001      12.119 -12.038  31.894  0.00  0.00     0.195 C 
ATOM     35  C5  BDP d1001      12.231 -13.713  31.793  0.00  0.00     0.257 C 
ATOM     36  O5  BDP d1001      13.839 -13.832  31.717  0.00  0.00    -0.340 OA
ATOM     37  C1  BDP d1001      14.776 -13.048  32.515  0.00  0.00     0.292 C 
ATOM     38  C2  BDP d1001      14.529 -11.526  32.345  0.00  0.00     0.204 C 
ATOM     39  C3  BDP d1001      13.084 -11.250  32.806  0.00  0.00     0.183 C 
BRANCH  35  40
ATOM     40  C6  BDP d1001      11.570 -14.462  31.067  0.00  0.00     0.206 C 
ATOM     41  O6B BDP d1001      12.040 -15.624  30.940  0.00  0.00    -0.646 OA
ATOM     42  O6A BDP d1001      10.532 -13.977  30.533  0.00  0.00    -0.646 OA
ENDBRANCH  35  40
BRANCH  37  43
ATOM     43  O3  NAG d1000      16.061 -13.456  32.143  0.00  0.00    -0.348 OA
BRANCH  43  44
ATOM     44  C3  NAG d1000      16.557 -14.664  32.802  0.00  0.00     0.183 C 
ATOM     45  C2  NAG d1000      18.059 -14.477  33.167  0.00  0.00     0.171 C 
ATOM     46  C1  NAG d1000      18.546 -15.782  33.871  0.00  0.00     0.282 C 
ATOM     47  O5  NAG d1000      18.391 -17.009  32.972  0.00  0.00    -0.349 OA
ATOM     48  C5  NAG d1000      16.964 -17.187  32.565  0.00  0.00     0.179 C 
ATOM     49  C4  NAG d1000      16.427 -15.896  31.820  0.00  0.00     0.180 C 
BRANCH  45  50
ATOM     50  N2  NAG d1000      18.237 -13.297  34.103  0.00  0.00    -0.349 N 
ATOM     51  C7  NAG d1000      18.605 -12.014  33.639  0.00  0.00     0.214 C 
ATOM     52  O7  NAG d1000      18.822 -11.696  32.456  0.00  0.00    -0.274 OA
ATOM     53  C8  NAG d1000      18.707 -11.022  34.771  0.00  0.00     0.117 C 
ATOM     54  H   NAG d1000      18.091 -13.430  35.068  0.00  0.00     0.163 HD
ENDBRANCH  45  50
BRANCH  46  55
ATOM     55  O1  NAG d1000      19.906 -15.672  34.215  0.00  0.00    -0.369 OA
ATOM     56  H   NAG d1000      20.033 -14.899  34.787  0.00  0.00     0.212 HD
ENDBRANCH  46  55
BRANCH  48  57
ATOM     57  C6  NAG d1000      16.895 -18.446  31.679  0.00  0.00     0.198 C 
BRANCH  57  58
ATOM     58  O6  NAG d1000      16.208 -19.540  32.325  0.00  0.00    -0.398 OA
ATOM     59  H   NAG d1000      16.686 -19.791  33.131  0.00  0.00     0.209 HD
ENDBRANCH  57  58
ENDBRANCH  48  57
BRANCH  49  60
ATOM     60  O4  NAG d1000      15.044 -16.125  31.449  0.00  0.00    -0.390 OA
ATOM     61  H   NAG d1000      14.698 -15.343  30.991  0.00  0.00     0.210 HD
ENDBRANCH  49  60
ENDBRANCH  43  44
ENDBRANCH  37  43
BRANCH  38  62
ATOM     62  O2  BDP d1001      15.470 -10.788  33.166  0.00  0.00    -0.388 OA
ATOM     63  H   BDP d1001      16.374 -10.971  32.865  0.00  0.00     0.210 HD
ENDBRANCH  38  62
BRANCH  39  64
ATOM     64  O3  BDP d1001      12.805  -9.838  32.688  0.00  0.00    -0.390 OA
ATOM     65  H   BDP d1001      13.410  -9.340  33.260  0.00  0.00     0.210 HD
ENDBRANCH  39  64
ENDBRANCH   1  34
TORSDOF 22
