REMARK  0 active torsions:
REMARK  status: ('A' for Active; 'I' for Inactive)
REMARK       I    between atoms: S1_1  and  N_136 
REMARK       I    between atoms: C6_2  and  C5_134 
REMARK       I    between atoms: C6_2  and  O6_37 
REMARK       I    between atoms: C1_3  and  O1_41 
REMARK       I    between atoms: C6_4  and  C5_121 
REMARK       I    between atoms: C6_4  and  O6_40 
REMARK       I    between atoms: O1_7  and  C4_89 
REMARK       I    between atoms: O1_7  and  C1_11 
REMARK       I    between atoms: C2_9  and  N_136 
REMARK       I    between atoms: C5_13  and  C6_66 
REMARK       I    between atoms: O3_14  and  C3_75 
REMARK       I    between atoms: O3_17  and  C3_67 
REMARK       I    between atoms: O1_18  and  C4_63 
REMARK       I    between atoms: O1_18  and  C1_36 
REMARK       I    between atoms: C3_19  and  O3_126 
REMARK       I    between atoms: C1_21  and  O1_117 
REMARK       I    between atoms: C5_23  and  C6_100 
REMARK       I    between atoms: O1_27  and  C4_50 
REMARK       I    between atoms: O1_27  and  C1_99 
REMARK       I    between atoms: C5_29  and  C6_119 
REMARK       I    between atoms: O1_32  and  C1_111 
REMARK       I    between atoms: S_35  and  O2_118 
REMARK       I    between atoms: O6_37  and  S2_142 
REMARK       I    between atoms: S_38  and  O2_125 
REMARK       I    between atoms: O6_40  and  S2_43 
REMARK       I    between atoms: O1_41  and  C4_74 
REMARK       I    between atoms: O3_44  and  C3_58 
REMARK       I    between atoms: S2_45  and  O6_71 
REMARK       I    between atoms: O3_47  and  C3_59 
REMARK       I    between atoms: C2_52  and  O2_141 
REMARK       I    between atoms: C4_53  and  O1_98 
REMARK       I    between atoms: C1_60  and  O1_98 
REMARK       I    between atoms: O61_61  and  C6_100 
REMARK       I    between atoms: C2_62  and  N_114 
REMARK       I    between atoms: C2_64  and  O2_125 
REMARK       I    between atoms: C6_65  and  C5_102 
REMARK       I    between atoms: C6_65  and  O62_135 
REMARK       I    between atoms: C6_66  and  O62_105 
REMARK       I    between atoms: C1_68  and  O1_101 
REMARK       I    between atoms: S3_70  and  O3_86 
REMARK       I    between atoms: O6_71  and  C6_133 
REMARK       I    between atoms: C3_72  and  O3_139 
REMARK       I    between atoms: O4_73  and  C4_107 
REMARK       I    between atoms: S1_76  and  N_113 
REMARK       I    between atoms: C5_77  and  C6_133 
REMARK       I    between atoms: C3_79  and  O3_122 
REMARK       I    between atoms: S2_80  and  O6_132 
REMARK       I    between atoms: S1_83  and  N_138 
REMARK       I    between atoms: C6_85  and  C5_96 
REMARK       I    between atoms: C6_85  and  O6_132 
REMARK       I    between atoms: O3_86  and  C3_145 
REMARK       I    between atoms: C4_90  and  O1_101 
REMARK       I    between atoms: C2_91  and  N_113 
REMARK       I    between atoms: C2_94  and  N_138 
REMARK       I    between atoms: O2_95  and  C2_129 
REMARK       I    between atoms: O2_95  and  S_130 
REMARK       I    between atoms: S_97  and  O2_141 
REMARK       I    between atoms: S1_103  and  N_114 
REMARK       I    between atoms: O61_115  and  C6_119 
REMARK       I    between atoms: O1_117  and  C4_128 
REMARK       I    between atoms: O2_118  and  C2_140 
ROOT
ATOM      1  S1  SUS d 506      32.531   8.209   9.989  0.00  0.00     0.183 S 
ATOM      2  C6  SUS d 506      26.993   7.076  13.750  0.00  0.00     0.227 C 
ATOM      3  O1S SUS d 506      31.899   9.520   9.629  0.00  0.00    -0.582 OA
ATOM      4  C2  SUS d 506      30.729   7.885  11.762  0.00  0.00     0.162 C 
ATOM      5  O9S SUS d 506      31.312   9.962  15.299  0.00  0.00    -0.572 OA
ATOM      6  O8S SUS d 506      32.073  11.829  13.918  0.00  0.00    -0.572 OA
ATOM      7  O1  SUS d 506      30.928   5.549  12.567  0.00  0.00    -0.348 OA
ATOM      8  O2S SUS d 506      34.021   8.316   9.855  0.00  0.00    -0.582 OA
ATOM      9  O6  SUS d 506      26.161   7.571  12.696  0.00  0.00    -0.254 OA
ATOM     10  S2  SUS d 506      24.751   7.722  12.896  0.00  0.00     0.251 S 
ATOM     11  O3S SUS d 506      32.024   7.145   9.062  0.00  0.00    -0.582 OA
ATOM     12  O6S SUS d 506      24.220   6.561  13.681  0.00  0.00    -0.572 OA
ATOM     13  C4  SUS d 506      28.918   8.633  13.273  0.00  0.00     0.188 C 
ATOM     14  S3  SUS d 506      31.840  10.348  13.948  0.00  0.00     0.252 S 
ATOM     15  O3  SUS d 506      30.894  10.000  12.930  0.00  0.00    -0.247 OA
ATOM     16  O4S SUS d 506      24.496   8.995  13.647  0.00  0.00    -0.572 OA
ATOM     17  O5  SUS d 506      28.745   6.479  12.173  0.00  0.00    -0.349 OA
ATOM     18  C1  SUS d 506      30.130   6.474  11.781  0.00  0.00     0.282 C 
ATOM     19  O5S SUS d 506      24.069   7.790  11.562  0.00  0.00    -0.572 OA
ATOM     20  O7S SUS d 506      33.142   9.644  13.703  0.00  0.00    -0.572 OA
ATOM     21  C5  SUS d 506      28.483   7.170  13.406  0.00  0.00     0.181 C 
ATOM     22  N   SUS d 506      32.180   7.822  11.533  0.00  0.00    -0.189 NA
ATOM     23  C3  SUS d 506      30.431   8.651  13.053  0.00  0.00     0.200 C 
ATOM     24  H   SUS d 506      32.647   8.479  12.158  0.00  0.00     0.143 HD
ATOM     25  C6  SGN d 508      27.979  17.210  11.679  0.00  0.00     0.227 C 
ATOM     26  O1  SGN d 508      26.260  13.945  13.614  0.00  0.00    -0.348 OA
ATOM     27  O2S SGN d 508      22.946  16.700  16.100  0.00  0.00    -0.582 OA
ATOM     28  O3S SGN d 508      22.266  14.398  16.587  0.00  0.00    -0.582 OA
ATOM     29  C1  SGN d 508      26.079  15.260  14.202  0.00  0.00     0.282 C 
ATOM     30  O6  SGN d 508      27.890  18.497  12.296  0.00  0.00    -0.254 OA
ATOM     31  O3  SGN d 508      23.153  16.491  12.196  0.00  0.00    -0.391 OA
ATOM     32  C3  SGN d 508      24.440  15.911  12.423  0.00  0.00     0.172 C 
ATOM     33  C2  SGN d 508      24.662  15.769  13.930  0.00  0.00     0.160 C 
ATOM     34  O4  SGN d 508      25.387  16.878  10.418  0.00  0.00    -0.390 OA
ATOM     35  O5  SGN d 508      27.026  16.184  13.641  0.00  0.00    -0.349 OA
ATOM     36  S1  SGN d 508      23.368  15.261  16.047  0.00  0.00     0.183 S 
ATOM     37  C4  SGN d 508      25.519  16.826  11.841  0.00  0.00     0.179 C 
ATOM     38  O6S SGN d 508      28.802  19.837  10.538  0.00  0.00    -0.572 OA
ATOM     39  N   SGN d 508      23.670  14.846  14.499  0.00  0.00    -0.189 NA
ATOM     40  O4S SGN d 508      28.556  20.735  12.805  0.00  0.00    -0.572 OA
ATOM     41  C5  SGN d 508      26.896  16.269  12.212  0.00  0.00     0.181 C 
ATOM     42  S2  SGN d 508      28.858  19.506  12.000  0.00  0.00     0.251 S 
ATOM     43  O5S SGN d 508      30.228  19.004  12.349  0.00  0.00    -0.572 OA
ATOM     44  O1S SGN d 508      24.605  15.076  16.875  0.00  0.00    -0.582 OA
ATOM     45  H   SGN d 508      22.468  15.912  12.565  0.00  0.00     0.210 HD
ATOM     46  H   SGN d 508      24.514  17.231  10.187  0.00  0.00     0.210 HD
ATOM     47  H   SGN d 508      24.034  13.894  14.467  0.00  0.00     0.143 HD
ATOM     48  C1  SGN d 502      42.254   3.070  19.840  0.00  0.00     0.282 C 
ATOM     49  O4S SGN d 502      39.444   7.026  16.194  0.00  0.00    -0.572 OA
ATOM     50  O1  SGN d 502      43.549   2.431  19.707  0.00  0.00    -0.348 OA
ATOM     51  O3  SGN d 502      39.982   0.569  18.187  0.00  0.00    -0.391 OA
ATOM     52  S2  SGN d 502      40.868   6.663  15.885  0.00  0.00     0.251 S 
ATOM     53  O2S SGN d 502      40.826   0.054  23.001  0.00  0.00    -0.582 OA
ATOM     54  O5S SGN d 502      41.048   6.153  14.485  0.00  0.00    -0.572 OA
ATOM     55  O5  SGN d 502      42.089   4.066  18.818  0.00  0.00    -0.349 OA
ATOM     56  C3  SGN d 502      41.122   1.422  18.316  0.00  0.00     0.173 C 
ATOM     57  O6S SGN d 502      41.975   7.446  16.522  0.00  0.00    -0.572 OA
ATOM     58  O6  SGN d 502      40.991   5.441  16.618  0.00  0.00    -0.254 OA
ATOM     59  C5  SGN d 502      42.206   3.501  17.501  0.00  0.00     0.181 C 
ATOM     60  O3S SGN d 502      41.317   2.439  22.749  0.00  0.00    -0.582 OA
ATOM     61  S1  SGN d 502      40.670   1.248  22.107  0.00  0.00     0.183 S 
ATOM     62  C4  SGN d 502      41.076   2.501  17.233  0.00  0.00     0.186 C 
ATOM     63  C2  SGN d 502      41.143   2.025  19.721  0.00  0.00     0.160 C 
ATOM     64  O1S SGN d 502      39.212   1.520  21.883  0.00  0.00    -0.582 OA
ATOM     65  C6  SGN d 502      42.178   4.653  16.494  0.00  0.00     0.227 C 
ATOM     66  N   SGN d 502      41.390   0.937  20.679  0.00  0.00    -0.189 NA
ATOM     67  H   SGN d 502      40.011  -0.115  18.874  0.00  0.00     0.210 HD
ATOM     68  H   SGN d 502      41.018   0.067  20.299  0.00  0.00     0.143 HD
ATOM     69  O61 IDS d 507      29.665  13.857  12.666  0.00  0.00    -0.648 OA
ATOM     70  O1S IDS d 507      24.147   8.854  17.040  0.00  0.00    -0.572 OA
ATOM     71  O3  IDS d 507      25.700  12.697  16.450  0.00  0.00    -0.390 OA
ATOM     72  O5  IDS d 507      27.602  11.141  13.186  0.00  0.00    -0.340 OA
ATOM     73  C1  IDS d 507      27.373  10.164  14.215  0.00  0.00     0.294 C 
ATOM     74  C4  IDS d 507      27.049  13.115  14.506  0.00  0.00     0.195 C 
ATOM     75  C6  IDS d 507      28.586  13.236  12.543  0.00  0.00     0.172 C 
ATOM     76  C3  IDS d 507      26.137  12.115  15.220  0.00  0.00     0.185 C 
ATOM     77  O2S IDS d 507      24.767  11.109  17.723  0.00  0.00    -0.572 OA
ATOM     78  O2  IDS d 507      26.169   9.826  16.250  0.00  0.00    -0.244 OA
ATOM     79  O1  IDS d 507      28.577   9.391  14.462  0.00  0.00    -0.348 OA
ATOM     80  C5  IDS d 507      28.126  12.367  13.716  0.00  0.00     0.253 C 
ATOM     81  O3S IDS d 507      24.068  10.670  15.411  0.00  0.00    -0.572 OA
ATOM     82  C2  IDS d 507      26.895  10.818  15.514  0.00  0.00     0.231 C 
ATOM     83  S   IDS d 507      24.811  10.123  16.593  0.00  0.00     0.252 S 
ATOM     84  O62 IDS d 507      27.868  13.277  11.522  0.00  0.00    -0.774 OA
ATOM     86  H   IDS d 507      27.069  12.788  11.491  0.00  0.00     0.167 HD
ATOM     87  O1  SGN d 504      37.666   0.963  13.253  0.00  0.00    -0.348 OA
ATOM     88  C1  SGN d 504      37.010  -0.133  12.563  0.00  0.00     0.282 C 
ATOM     89  O4S SGN d 504      32.434  -3.760  14.061  0.00  0.00    -0.572 OA
ATOM     90  O5  SGN d 504      35.882  -0.607  13.318  0.00  0.00    -0.349 OA
ATOM     91  C3  SGN d 504      35.439   1.288  11.216  0.00  0.00     0.173 C 
ATOM     92  S1  SGN d 504      38.494  -0.245   9.519  0.00  0.00     0.183 S 
ATOM     93  S2  SGN d 504      33.216  -2.662  14.719  0.00  0.00     0.251 S 
ATOM     94  O1S SGN d 504      39.718   0.379   8.918  0.00  0.00    -0.582 OA
ATOM     95  C6  SGN d 504      33.728  -0.265  14.311  0.00  0.00     0.227 C 
ATOM     96  C2  SGN d 504      36.586   0.277  11.150  0.00  0.00     0.160 C 
ATOM     97  C5  SGN d 504      34.822   0.357  13.438  0.00  0.00     0.181 C 
ATOM     98  O5S SGN d 504      34.593  -3.154  15.053  0.00  0.00    -0.572 OA
ATOM     99  O3S SGN d 504      37.582  -0.712   8.424  0.00  0.00    -0.582 OA
ATOM    100  N   SGN d 504      37.729   0.867  10.436  0.00  0.00    -0.189 NA
ATOM    101  O2S SGN d 504      38.882  -1.424  10.361  0.00  0.00    -0.582 OA
ATOM    102  O6S SGN d 504      32.518  -2.243  15.978  0.00  0.00    -0.572 OA
ATOM    103  C4  SGN d 504      34.297   0.691  12.038  0.00  0.00     0.186 C 
ATOM    104  O6  SGN d 504      33.317  -1.547  13.826  0.00  0.00    -0.254 OA
ATOM    105  O3  SGN d 504      34.974   1.555   9.891  0.00  0.00    -0.391 OA
ATOM    106  H   SGN d 504      37.393   1.619   9.835  0.00  0.00     0.143 HD
ATOM    107  H   SGN d 504      34.668   0.730   9.483  0.00  0.00     0.210 HD
ATOM    108  O3S IDS d 503      40.863   3.312  10.539  0.00  0.00    -0.572 OA
ATOM    109  C5  IDS d 503      38.485   1.338  15.546  0.00  0.00     0.253 C 
ATOM    110  O61 IDS d 503      36.540   2.728  15.604  0.00  0.00    -0.648 OA
ATOM    111  O3  IDS d 503      40.547  -0.687  14.845  0.00  0.00    -0.390 OA
ATOM    112  S   IDS d 503      41.348   2.502  11.705  0.00  0.00     0.252 S 
ATOM    113  O1S IDS d 503      42.283   3.328  12.538  0.00  0.00    -0.572 OA
ATOM    114  C2  IDS d 503      40.674   1.430  13.668  0.00  0.00     0.231 C 
ATOM    115  C6  IDS d 503      37.045   1.644  15.967  0.00  0.00     0.172 C 
ATOM    116  C3  IDS d 503      39.889   0.132  13.876  0.00  0.00     0.185 C 
ATOM    117  C1  IDS d 503      40.541   2.369  14.871  0.00  0.00     0.294 C 
ATOM    118  O2S IDS d 503      42.076   1.291  11.201  0.00  0.00    -0.572 OA
ATOM    119  C4  IDS d 503      38.455   0.404  14.335  0.00  0.00     0.195 C 
ATOM    120  O1  IDS d 503      41.301   1.813  15.975  0.00  0.00    -0.348 OA
ATOM    121  O62 IDS d 503      36.447   0.788  16.654  0.00  0.00    -0.774 OA
ATOM    122  O2  IDS d 503      40.221   2.105  12.493  0.00  0.00    -0.244 OA
ATOM    123  O5  IDS d 503      39.159   2.564  15.221  0.00  0.00    -0.340 OA
ATOM    124  H   IDS d 503      41.457  -0.861  14.557  0.00  0.00     0.210 HD
ATOM    125  H   IDS d 503      36.881  -0.007  16.894  0.00  0.00     0.167 HD
ATOM    126  O1S IDS d 501      45.448  -1.490  22.077  0.00  0.00    -0.572 OA
ATOM    127  O5  IDS d 501      46.275   1.653  19.680  0.00  0.00    -0.340 OA
ATOM    128  O62 IDS d 501      45.404   4.629  17.913  0.00  0.00    -0.648 OA
ATOM    129  C5  IDS d 501      45.901   3.038  19.620  0.00  0.00     0.253 C 
ATOM    130  O1  IDS d 501      47.572   2.091  21.572  0.00  0.00    -0.368 OA
ATOM    131  O3S IDS d 501      43.018  -1.509  21.775  0.00  0.00    -0.572 OA
ATOM    132  O2S IDS d 501      44.010  -0.254  23.630  0.00  0.00    -0.572 OA
ATOM    133  C2  IDS d 501      45.275   1.378  21.876  0.00  0.00     0.231 C 
ATOM    134  C4  IDS d 501      44.569   3.241  20.346  0.00  0.00     0.195 C 
ATOM    135  C3  IDS d 501      44.738   2.809  21.804  0.00  0.00     0.185 C 
ATOM    136  S   IDS d 501      44.192  -0.678  22.202  0.00  0.00     0.252 S 
ATOM    137  C1  IDS d 501      46.546   1.252  21.032  0.00  0.00     0.291 C 
ATOM    138  O61 IDS d 501      45.931   2.579  17.279  0.00  0.00    -0.774 OA
ATOM    139  C6  IDS d 501      45.733   3.448  18.156  0.00  0.00     0.172 C 
ATOM    140  O3  IDS d 501      45.655   3.694  22.453  0.00  0.00    -0.390 OA
ATOM    141  O2  IDS d 501      44.285   0.479  21.366  0.00  0.00    -0.244 OA
ATOM    142  H   IDS d 501      48.375   2.007  21.034  0.00  0.00     0.212 HD
ATOM    143  H   IDS d 501      46.176   1.710  17.528  0.00  0.00     0.167 HD
ATOM    144  H   IDS d 501      46.514   3.655  22.005  0.00  0.00     0.210 HD
ATOM    145  C3  IDS d 505      32.079   4.164  10.872  0.00  0.00     0.185 C 
ATOM    146  C1  IDS d 505      33.426   2.903  12.611  0.00  0.00     0.294 C 
ATOM    147  C5  IDS d 505      31.115   3.093  12.878  0.00  0.00     0.253 C 
ATOM    148  S   IDS d 505      35.303   5.492  11.720  0.00  0.00     0.252 S 
ATOM    149  O62 IDS d 505      30.201   2.435  14.982  0.00  0.00    -0.648 OA
ATOM    150  C4  IDS d 505      30.948   4.258  11.900  0.00  0.00     0.195 C 
ATOM    151  O1S IDS d 505      36.005   4.323  12.348  0.00  0.00    -0.572 OA
ATOM    152  O61 IDS d 505      28.812   3.280  13.488  0.00  0.00    -0.774 OA
ATOM    153  O2S IDS d 505      35.488   6.755  12.508  0.00  0.00    -0.572 OA
ATOM    154  C6  IDS d 505      29.954   2.936  13.864  0.00  0.00     0.172 C 
ATOM    155  O3S IDS d 505      35.245   5.576  10.226  0.00  0.00    -0.572 OA
ATOM    156  O1  IDS d 505      33.152   1.586  12.063  0.00  0.00    -0.348 OA
ATOM    157  O2  IDS d 505      33.935   5.205  12.044  0.00  0.00    -0.244 OA
ATOM    158  O3  IDS d 505      31.794   3.080   9.985  0.00  0.00    -0.390 OA
ATOM    159  O5  IDS d 505      32.381   3.219  13.544  0.00  0.00    -0.340 OA
ATOM    160  C2  IDS d 505      33.462   3.965  11.504  0.00  0.00     0.231 C 
ATOM    161  H   IDS d 505      28.691   3.651  12.636  0.00  0.00     0.167 HD
ATOM    162  H   IDS d 505      31.764   2.251  10.487  0.00  0.00     0.210 HD
ENDROOT
TORSDOF 61
