REMARK  0 active torsions:
REMARK  status: ('A' for Active; 'I' for Inactive)
REMARK       I    between atoms: C2_1  and  O2_19 
REMARK       I    between atoms: C5_2  and  C6_5 
REMARK       I    between atoms: C6_5  and  O6_21 
REMARK       I    between atoms: C3_6  and  O3_18 
REMARK       I    between atoms: C5_7  and  C6_22 
REMARK       I    between atoms: C2_8  and  N2_24 
REMARK       I    between atoms: C7_9  and  N2_24 
REMARK       I    between atoms: O1_10  and  C1_23 
REMARK       I    between atoms: C1_13  and  O3_14 
REMARK       I    between atoms: O3_14  and  C3_17 
REMARK       I    between atoms: O6A_20  and  C6_22 
REMARK       I    between atoms: O4_25  and  C4_26 
ROOT
ATOM      1  C2  GC4 d1769      26.308  17.670  29.782  0.00  0.00     0.202 C 
ATOM      2  O6B GC4 d1769      24.631  22.344  29.779  0.00  0.00    -0.648 OA
ATOM      3  C3  GC4 d1769      25.311  17.668  28.615  0.00  0.00     0.154 C 
ATOM      4  C5  GC4 d1769      25.286  20.259  28.796  0.00  0.00     0.224 C 
ATOM      5  O5  GC4 d1769      26.089  20.101  29.950  0.00  0.00    -0.343 OA
ATOM      6  C1  GC4 d1769      27.040  19.019  29.786  0.00  0.00     0.292 C 
ATOM      7  C4  GC4 d1769      24.540  18.972  28.422  0.00  0.00     0.077 C 
ATOM      8  O3  GC4 d1769      24.347  16.627  28.813  0.00  0.00    -0.393 OA
ATOM      9  O2  GC4 d1769      27.215  16.571  29.717  0.00  0.00    -0.388 OA
ATOM     10  O6A GC4 d1769      23.634  21.748  27.961  0.00  0.00    -0.774 OA
ATOM     11  C6  GC4 d1769      24.445  21.502  28.864  0.00  0.00     0.170 C 
ATOM     12  H   GC4 d1769      23.835  16.809  29.616  0.00  0.00     0.210 HD
ATOM     13  H   GC4 d1769      27.731  16.625  28.897  0.00  0.00     0.210 HD
ATOM     14  H   GC4 d1769      23.491  21.124  27.277  0.00  0.00     0.167 HD
ATOM     15  C5  NAG d1770      30.350  21.889  31.603  0.00  0.00     0.179 C 
ATOM     16  O5  NAG d1770      31.536  21.339  31.082  0.00  0.00    -0.349 OA
ATOM     17  C6  NAG d1770      30.704  22.740  32.852  0.00  0.00     0.198 C 
ATOM     18  C2  NAG d1770      30.321  19.538  29.928  0.00  0.00     0.171 C 
ATOM     19  C7  NAG d1770      30.199  17.503  28.644  0.00  0.00     0.214 C 
ATOM     20  O1  NAG d1770      32.560  20.184  29.468  0.00  0.00    -0.369 OA
ATOM     21  C8  NAG d1770      29.837  16.945  27.252  0.00  0.00     0.117 C 
ATOM     22  O3  NAG d1770      28.021  19.116  30.745  0.00  0.00    -0.348 OA
ATOM     23  O7  NAG d1770      30.617  16.814  29.624  0.00  0.00    -0.274 OA
ATOM     24  C3  NAG d1770      29.047  20.080  30.560  0.00  0.00     0.183 C 
ATOM     25  O6  NAG d1770      31.196  21.824  33.784  0.00  0.00    -0.398 OA
ATOM     26  C1  NAG d1770      31.326  20.660  29.826  0.00  0.00     0.282 C 
ATOM     27  N2  NAG d1770      30.057  18.800  28.725  0.00  0.00    -0.349 N 
ATOM     28  O4  NAG d1770      28.150  21.455  32.365  0.00  0.00    -0.390 OA
ATOM     29  C4  NAG d1770      29.318  20.834  31.871  0.00  0.00     0.180 C 
ATOM     30  H   NAG d1770      33.187  20.922  29.409  0.00  0.00     0.212 HD
ATOM     31  H   NAG d1770      30.523  21.148  33.959  0.00  0.00     0.209 HD
ATOM     32  H   NAG d1770      29.756  19.292  27.927  0.00  0.00     0.163 HD
ATOM     33  H   NAG d1770      28.356  21.921  33.191  0.00  0.00     0.210 HD
ENDROOT
TORSDOF 11
