REMARK 26 active torsions
REMARK    1  A    between atoms: atom1  and  atom_
REMARK    2  A    between atoms: atom7  and  atom_
REMARK    3  A    between atoms: atom9  and  atom_
REMARK    4  A    between atoms: atom1  and  atom0
REMARK    5  A    between atoms: atom1  and  atom9
REMARK    6  A    between atoms: atom2  and  atom3
REMARK    7  A    between atoms: atom3  and  atom0
REMARK    8  A    between atoms: atom3  and  atom3
REMARK    9  A    between atoms: atom3  and  atom6
REMARK    10  A    between atoms: atom1  and  atom2
REMARK    11  A    between atoms: atom3  and  atom_
REMARK    12  A    between atoms: atom6  and  atom6
REMARK    13  A    between atoms: atom6  and  atom8
REMARK    14  A    between atoms: atom6  and  atom9
REMARK    15  A    between atoms: atom7  and  atom8
REMARK    16  A    between atoms: atom8  and  atom2
REMARK    17  A    between atoms: atom8  and  atom9
REMARK    18  A    between atoms: atom9  and  atom2
REMARK    19  A    between atoms: atom9  and  atom5
REMARK    20  A    between atoms: atom7  and  atom1
REMARK    21  A    between atoms: atom4  and  atom9
REMARK    22  A    between atoms: atom2  and  atom_
REMARK    23  A    between atoms: atom6  and  atom_
REMARK    24  A    between atoms: atom6  and  atom0
REMARK    25  A    between atoms: atom4  and  atom_
REMARK    26  A    between atoms: atom1  and  atom0
ROOT
ATOM      1  C4  BDP d1178      11.000 -11.814   6.022  0.00  0.00     0.195 C 
ATOM      2  C3  BDP d1178      10.101 -10.712   6.556  0.00  0.00     0.183 C 
ATOM      3  C1  BDP d1178      10.241 -11.783   8.779  0.00  0.00     0.292 C 
ATOM      4  C2  BDP d1178      10.404 -10.474   8.014  0.00  0.00     0.204 C 
ATOM      5  O5  BDP d1178      11.197 -12.708   8.310  0.00  0.00    -0.340 OA
ATOM      6  C5  BDP d1178      11.031 -13.035   6.935  0.00  0.00     0.253 C 
ENDROOT
BRANCH   1   7
ATOM      7  O4  BDP d1178      10.438 -12.211   4.804  0.00  0.00    -0.348 OA
BRANCH   7   8
ATOM      8  C1  NAG d1179      11.353 -12.243   3.696  0.00  0.00     0.286 C 
ATOM      9  C2  NAG d1179      10.668 -13.119   2.655  0.00  0.00     0.171 C 
ATOM     10  C3  NAG d1179      11.362 -13.125   1.295  0.00  0.00     0.183 C 
ATOM     11  C4  NAG d1179      11.707 -11.701   0.872  0.00  0.00     0.180 C 
ATOM     12  C5  NAG d1179      12.434 -10.983   2.011  0.00  0.00     0.179 C 
ATOM     13  O5  NAG d1179      11.602 -10.962   3.158  0.00  0.00    -0.349 OA
ATOM     53  O4  NAG d1179      12.495 -11.728  -0.300  0.00  0.00    -0.390 OA
ATOM     54  H   NAG d1179      13.317 -12.213  -0.126  0.00  0.00     0.210 HD
BRANCH   9  14
ATOM     14  N2  NAG d1179      10.489 -14.471   3.160  0.00  0.00    -0.349 N 
ATOM     15  C7  NAG d1179       9.268 -14.957   3.376  0.00  0.00     0.214 C 
ATOM     16  C8  NAG d1179       9.102 -15.931   4.502  0.00  0.00     0.117 C 
ATOM     17  O7  NAG d1179       8.292 -14.642   2.698  0.00  0.00    -0.274 OA
ATOM     18  H   NAG d1179      11.277 -15.032   3.344  0.00  0.00     0.163 HD
ENDBRANCH   9  14
BRANCH  10  19
ATOM     19  O3  NAG d1179      10.476 -13.689   0.346  0.00  0.00    -0.348 OA
BRANCH  19  20
ATOM     20  C1  BDP d1180      11.046 -14.817  -0.334  0.00  0.00     0.292 C 
ATOM     21  C2  BDP d1180       9.919 -15.714  -0.846  0.00  0.00     0.204 C 
ATOM     22  C3  BDP d1180      10.359 -16.754  -1.885  0.00  0.00     0.183 C 
ATOM     23  C4  BDP d1180      11.496 -16.279  -2.795  0.00  0.00     0.195 C 
ATOM     24  C5  BDP d1180      12.529 -15.474  -2.010  0.00  0.00     0.253 C 
ATOM     25  O5  BDP d1180      11.867 -14.387  -1.397  0.00  0.00    -0.340 OA
ATOM     26  O2  BDP d1180       9.383 -16.403   0.264  0.00  0.00    -0.388 OA
ATOM     27  H   BDP d1180       9.098 -15.763   0.935  0.00  0.00     0.210 HD
ATOM     28  O3  BDP d1180       9.241 -17.097  -2.678  0.00  0.00    -0.390 OA
ATOM     29  H   BDP d1180       9.504 -17.755  -3.341  0.00  0.00     0.210 HD
ATOM     49  C6  BDP d1180      13.699 -14.978  -2.862  0.00  0.00     0.172 C 
ATOM     50  O6A BDP d1180      14.823 -15.497  -2.658  0.00  0.00    -0.648 OA
BRANCH  23  30
ATOM     30  O4  BDP d1180      12.148 -17.402  -3.345  0.00  0.00    -0.348 OA
BRANCH  30  31
ATOM     31  C1  NAG d1181      11.787 -17.632  -4.717  0.00  0.00     0.286 C 
ATOM     32  O5  NAG d1181      10.500 -18.191  -4.826  0.00  0.00    -0.349 OA
ATOM     33  C5  NAG d1181      10.071 -18.391  -6.162  0.00  0.00     0.179 C 
ATOM     34  C4  NAG d1181      11.020 -19.333  -6.917  0.00  0.00     0.180 C 
ATOM     35  C3  NAG d1181      12.489 -18.923  -6.774  0.00  0.00     0.177 C 
ATOM     36  C2  NAG d1181      12.817 -18.587  -5.317  0.00  0.00     0.170 C 
ATOM     40  O4  NAG d1181      10.675 -19.354  -8.284  0.00  0.00    -0.390 OA
ATOM     41  H   NAG d1181      11.275 -19.949  -8.760  0.00  0.00     0.210 HD
ATOM     42  O3  NAG d1181      13.340 -19.961  -7.238  0.00  0.00    -0.391 OA
ATOM     43  H   NAG d1181      13.125 -20.167  -8.161  0.00  0.00     0.210 HD
BRANCH  33  37
ATOM     37  C6  NAG d1181       8.647 -18.951  -6.125  0.00  0.00     0.198 C 
ATOM     38  O6  NAG d1181       7.727 -17.917  -5.842  0.00  0.00    -0.398 OA
ATOM     39  H   NAG d1181       6.828 -18.281  -5.821  0.00  0.00     0.209 HD
ENDBRANCH  33  37
BRANCH  36  44
ATOM     44  N2  NAG d1181      14.147 -18.008  -5.197  0.00  0.00    -0.349 N 
ATOM     45  C7  NAG d1181      15.146 -18.667  -4.610  0.00  0.00     0.214 C 
ATOM     46  O7  NAG d1181      16.133 -19.057  -5.239  0.00  0.00    -0.274 OA
ATOM     47  C8  NAG d1181      15.019 -18.924  -3.133  0.00  0.00     0.117 C 
ATOM     48  H   NAG d1181      14.313 -17.107  -5.558  0.00  0.00     0.163 HD
ENDBRANCH  36  44
ENDBRANCH  30  31
ENDBRANCH  23  30
BRANCH  49  51
ATOM     51  O6B BDP d1180      13.480 -14.074  -3.705  0.00  0.00    -0.774 OA
ATOM     52  H   BDP d1180      12.615 -13.729  -3.808  0.00  0.00     0.167 HD
ENDBRANCH  49  51
ENDBRANCH  19  20
ENDBRANCH  10  19
BRANCH  12  55
ATOM     55  C6  NAG d1179      12.819  -9.549   1.646  0.00  0.00     0.198 C 
ATOM     56  O6  NAG d1179      11.675  -8.800   1.278  0.00  0.00    -0.398 OA
ATOM     57  H   NAG d1179      11.940  -7.895   1.051  0.00  0.00     0.209 HD
ENDBRANCH  12  55
ENDBRANCH   7   8
ENDBRANCH   1   7
BRANCH   2  58
ATOM     58  O3  BDP d1178      10.281  -9.530   5.809  0.00  0.00    -0.390 OA
ATOM     59  H   BDP d1178      10.082  -9.704   4.876  0.00  0.00     0.210 HD
ENDBRANCH   2  58
BRANCH   3  66
ATOM     66  O3  NAG d1177      10.371 -11.477  10.178  0.00  0.00    -0.348 OA
BRANCH  66  67
ATOM     67  C3  NAG d1177       9.988 -12.536  11.025  0.00  0.00     0.183 C 
ATOM     68  C2  NAG d1177       8.794 -12.115  11.871  0.00  0.00     0.171 C 
ATOM     69  C1  NAG d1177       8.526 -13.158  12.957  0.00  0.00     0.286 C 
ATOM     70  O5  NAG d1177       9.695 -13.443  13.708  0.00  0.00    -0.349 OA
ATOM     71  C5  NAG d1177      10.765 -13.946  12.935  0.00  0.00     0.179 C 
ATOM     72  C4  NAG d1177      11.181 -12.909  11.892  0.00  0.00     0.180 C 
ATOM    115  O4  NAG d1177      12.195 -13.404  11.039  0.00  0.00    -0.390 OA
ATOM    116  H   NAG d1177      11.862 -14.176  10.555  0.00  0.00     0.210 HD
BRANCH  68  73
ATOM     73  N2  NAG d1177       7.644 -11.957  10.992  0.00  0.00    -0.349 N 
ATOM     74  C7  NAG d1177       6.883 -10.867  10.942  0.00  0.00     0.214 C 
ATOM     75  C8  NAG d1177       5.559 -11.053  10.264  0.00  0.00     0.117 C 
ATOM     76  O7  NAG d1177       7.209  -9.763  11.390  0.00  0.00    -0.274 OA
ATOM     77  H   NAG d1177       7.415 -12.706  10.396  0.00  0.00     0.163 HD
ENDBRANCH  68  73
BRANCH  69  78
ATOM     78  O4  BDP d1176       7.454 -12.686  13.786  0.00  0.00    -0.348 OA
BRANCH  78  79
ATOM     79  C4  BDP d1176       6.904 -13.701  14.604  0.00  0.00     0.195 C 
ATOM     80  C3  BDP d1176       7.328 -13.452  16.044  0.00  0.00     0.183 C 
ATOM     81  C2  BDP d1176       6.446 -14.119  17.097  0.00  0.00     0.204 C 
ATOM     82  C1  BDP d1176       4.958 -14.208  16.735  0.00  0.00     0.292 C 
ATOM     83  O5  BDP d1176       4.818 -14.577  15.392  0.00  0.00    -0.340 OA
ATOM     84  C5  BDP d1176       5.385 -13.661  14.501  0.00  0.00     0.253 C 
ATOM     85  O3  BDP d1176       8.670 -13.862  16.210  0.00  0.00    -0.390 OA
ATOM     86  H   BDP d1176       8.738 -14.817  16.055  0.00  0.00     0.210 HD
ATOM     87  O2  BDP d1176       6.579 -13.340  18.261  0.00  0.00    -0.388 OA
ATOM     88  H   BDP d1176       6.266 -12.439  18.084  0.00  0.00     0.210 HD
ATOM    108  C6  BDP d1176       4.901 -14.045  13.119  0.00  0.00     0.172 C 
ATOM    109  O6A BDP d1176       5.098 -15.227  12.776  0.00  0.00    -0.648 OA
BRANCH  82  89
ATOM     89  O3  NAG d1175       4.288 -15.199  17.546  0.00  0.00    -0.348 OA
BRANCH  89  90
ATOM     90  C3  NAG d1175       2.925 -14.888  17.834  0.00  0.00     0.183 C 
ATOM     91  C4  NAG d1175       1.950 -15.587  16.868  0.00  0.00     0.180 C 
ATOM     92  C5  NAG d1175       0.530 -15.710  17.425  0.00  0.00     0.179 C 
ATOM     93  O5  NAG d1175       0.527 -16.183  18.764  0.00  0.00    -0.349 OA
ATOM     94  C1  NAG d1175       1.171 -15.276  19.644  0.00  0.00     0.282 C 
ATOM     95  C2  NAG d1175       2.668 -15.238  19.310  0.00  0.00     0.171 C 
ATOM     96  O4  NAG d1175       1.859 -14.890  15.639  0.00  0.00    -0.390 OA
ATOM     97  H   NAG d1175       1.488 -14.007  15.795  0.00  0.00     0.210 HD
ATOM    101  O1  NAG d1175       0.972 -15.675  20.986  0.00  0.00    -0.369 OA
ATOM    102  H   NAG d1175       0.022 -15.694  21.180  0.00  0.00     0.212 HD
BRANCH  92  98
ATOM     98  C6  NAG d1175      -0.299 -16.636  16.543  0.00  0.00     0.198 C 
ATOM     99  O6  NAG d1175      -1.646 -16.533  16.944  0.00  0.00    -0.398 OA
ATOM    100  H   NAG d1175      -2.192 -17.116  16.394  0.00  0.00     0.209 HD
ENDBRANCH  92  98
BRANCH  95  103
ATOM    103  N2  NAG d1175       3.381 -14.297  20.168  0.00  0.00    -0.349 N 
ATOM    104  C7  NAG d1175       4.038 -14.693  21.260  0.00  0.00     0.214 C 
ATOM    105  C8  NAG d1175       3.655 -14.006  22.542  0.00  0.00     0.117 C 
ATOM    106  O7  NAG d1175       4.919 -15.561  21.237  0.00  0.00    -0.274 OA
ATOM    107  H   NAG d1175       3.377 -13.341  19.934  0.00  0.00     0.163 HD
ENDBRANCH  95  103
ENDBRANCH  89  90
ENDBRANCH  82  89
BRANCH  108  110
ATOM    110  O6B BDP d1176       4.343 -13.165  12.431  0.00  0.00    -0.774 OA
ATOM    111  H   BDP d1176       4.238 -12.299  12.773  0.00  0.00     0.167 HD
ENDBRANCH  108  110
ENDBRANCH  78  79
ENDBRANCH  69  78
BRANCH  71  112
ATOM    112  C6  NAG d1177      11.914 -14.345  13.860  0.00  0.00     0.198 C 
ATOM    113  O6  NAG d1177      11.755 -13.741  15.131  0.00  0.00    -0.398 OA
ATOM    114  H   NAG d1177      11.755 -12.776  15.033  0.00  0.00     0.209 HD
ENDBRANCH  71  112
ENDBRANCH  66  67
ENDBRANCH   3  66
BRANCH   4  64
ATOM     64  O2  BDP d1178       9.522  -9.498   8.508  0.00  0.00    -0.388 OA
ATOM     65  H   BDP d1178       9.640  -8.674   8.010  0.00  0.00     0.210 HD
ENDBRANCH   4  64
BRANCH   6  60
ATOM     60  C6  BDP d1178      12.117 -13.987   6.430  0.00  0.00     0.172 C 
ATOM     61  O6B BDP d1178      11.759 -14.824   5.567  0.00  0.00    -0.648 OA
BRANCH  60  62
ATOM     62  O6A BDP d1178      13.288 -13.880   6.871  0.00  0.00    -0.774 OA
ATOM     63  H   BDP d1178      13.488 -13.231   7.517  0.00  0.00     0.167 HD
ENDBRANCH  60  62
ENDBRANCH   6  60
TORSDOF 26
