REMARK WARNING: 32 MAX_TORS EXCEEDED!!!
REMARK  39 active torsions:
REMARK  status: ('A' for Active; 'I' for Inactive)
REMARK    1  A    between atoms: C2_2  and  N_68 
REMARK    2  A    between atoms: C1_3  and  O4_24 
REMARK    3  A    between atoms: O1S_5  and  S1_58 
REMARK    4  A    between atoms: O1_6  and  C1_31 
REMARK    5  A    between atoms: C4_7  and  O4_36 
REMARK    6  A    between atoms: C1_8  and  O4_37 
REMARK    7  A    between atoms: O3_9  and  C3_74 
REMARK    8  A    between atoms: C5_10  and  C6_32 
REMARK    9  A    between atoms: C2_11  and  N_20 
REMARK   10  A    between atoms: C6_12  and  C5_53 
REMARK   11  A    between atoms: S2_14  and  O6_33 
REMARK   12  A    between atoms: O3S_16  and  S1_51 
REMARK   13  A    between atoms: S_17  and  O2_44 
REMARK   14  A    between atoms: N_20  and  S1_58 
REMARK   15  A    between atoms: O4_24  and  C4_38 
REMARK   16  A    between atoms: S_25  and  O2_64 
REMARK   17  A    between atoms: O2S_27  and  S1_51 
REMARK   18  A    between atoms: C4_28  and  O4_73 
REMARK   19  A    between atoms: C3_30  and  O3_62 
REMARK   20  A    between atoms: O6_33  and  C6_63 
REMARK   21  A    between atoms: O3_35  and  C3_55 
REMARK   22  A    between atoms: O4_36  and  C1_84 
REMARK   23  A    between atoms: O4_37  and  C4_54 
REMARK   24  A    between atoms: C3_39  and  O3_48 
REMARK   25  A    between atoms: C5_42  and  C6_63 
REMARK   26  A    between atoms: O2_44  and  C2_61 
REMARK   27  A    between atoms: O6_45  and  C6_77 
REMARK   28  A    between atoms: O6_45  and  S2_82 
REMARK   29  A    between atoms: C5_49  and  C6_76 
REMARK   30  A    between atoms: S1_51  and  N_68 
REMARK   31  A    between atoms: S1_51  and  O1S_81 
REMARK   32  A    between atoms: O2S_52  and  S1_58 
REMARK   33  A    between atoms: C2_57  and  O2_64 
REMARK   34  A    between atoms: S1_58  and  O3S_75 
REMARK   35  A    between atoms: O3_66  and  C3_67 
REMARK   36  A    between atoms: O2_69  and  C2_79 
REMARK   37  A    between atoms: O2_69  and  S_72 
REMARK   38  A    between atoms: C5_70  and  C6_77 
REMARK   39  A    between atoms: C1_71  and  O4_73 
ROOT
ATOM      1  C4  IDS d 303     133.798  11.466  76.410  0.00  0.00     0.195 C 
ATOM      2  C3  IDS d 303     133.084  10.796  77.619  0.00  0.00     0.185 C 
ATOM      3  C5  IDS d 303     135.212  11.924  76.843  0.00  0.00     0.257 C 
ATOM      4  C1  IDS d 303     135.477  10.177  78.509  0.00  0.00     0.294 C 
ATOM      5  C2  IDS d 303     133.977   9.794  78.402  0.00  0.00     0.231 C 
ATOM      6  O5  IDS d 303     135.944  10.782  77.309  0.00  0.00    -0.340 OA
ENDROOT
BRANCH   4   7
ATOM      7  O4  SGN d 302     135.649  11.010  79.616  0.00  0.00    -0.348 OA
BRANCH   7   8
ATOM      8  C4  SGN d 302     136.977  11.185  80.100  0.00  0.00     0.186 C 
ATOM      9  C3  SGN d 302     136.946  12.645  80.600  0.00  0.00     0.173 C 
ATOM     10  C2  SGN d 302     138.353  13.058  81.013  0.00  0.00     0.157 C 
ATOM     11  C1  SGN d 302     138.889  12.115  82.120  0.00  0.00     0.282 C 
ATOM     12  O5  SGN d 302     138.806  10.746  81.707  0.00  0.00    -0.349 OA
ATOM     13  C5  SGN d 302     137.490  10.296  81.279  0.00  0.00     0.181 C 
BRANCH   9  14
ATOM     14  O3  SGN d 302     136.501  13.508  79.567  0.00  0.00    -0.391 OA
ATOM     15  H   SGN d 302     136.486  14.421  79.893  0.00  0.00     0.210 HD
ENDBRANCH   9  14
BRANCH  10  16
ATOM     16  N   SGN d 302     138.375  14.447  81.504  0.00  0.00    -0.210 NA
ATOM     17  H   SGN d 302     138.328  14.393  82.522  0.00  0.00     0.140 HD
BRANCH  16  18
ATOM     18  S1  SGN d 302     139.606  15.460  81.155  0.00  0.00     0.156 S 
BRANCH  18  19
ATOM     19  O1S SGN d 302     139.247  16.683  81.808  0.00  0.00    -0.296 OA
ATOM     20  H   SGN d 302     139.248  16.549  82.769  0.00  0.00     0.231 HD
ENDBRANCH  18  19
BRANCH  18  21
ATOM     21  O2S SGN d 302     140.810  14.910  81.697  0.00  0.00    -0.296 OA
ATOM     22  H   SGN d 302     140.736  14.858  82.663  0.00  0.00     0.231 HD
ENDBRANCH  18  21
BRANCH  18  23
ATOM     23  O3S SGN d 302     139.628  15.573  79.725  0.00  0.00    -0.296 OA
ATOM     24  H   SGN d 302     138.789  15.950  79.418  0.00  0.00     0.231 HD
ENDBRANCH  18  23
ENDBRANCH  16  18
ENDBRANCH  10  16
BRANCH  11  25
ATOM     25  O4  IDS d 301     138.243  12.283  83.353  0.00  0.00    -0.348 OA
BRANCH  25  26
ATOM     26  C4  IDS d 301     138.957  11.867  84.528  0.00  0.00     0.195 C 
ATOM     27  C3  IDS d 301     138.608  12.979  85.567  0.00  0.00     0.185 C 
ATOM     28  C2  IDS d 301     139.400  12.778  86.874  0.00  0.00     0.231 C 
ATOM     29  C1  IDS d 301     139.082  11.386  87.498  0.00  0.00     0.291 C 
ATOM     30  O5  IDS d 301     138.912  10.386  86.487  0.00  0.00    -0.340 OA
ATOM     31  C5  IDS d 301     139.611  10.627  85.246  0.00  0.00     0.257 C 
BRANCH  27  32
ATOM     32  O3  IDS d 301     138.926  14.250  85.021  0.00  0.00    -0.390 OA
ATOM     33  H   IDS d 301     139.875  14.290  84.826  0.00  0.00     0.210 HD
ENDBRANCH  27  32
BRANCH  28  34
ATOM     34  O2  IDS d 301     139.046  13.800  87.787  0.00  0.00    -0.244 OA
BRANCH  34  35
ATOM     35  S   IDS d 301     139.983  14.878  88.429  0.00  0.00     0.252 S 
ATOM     36  O1S IDS d 301     141.262  14.261  88.657  0.00  0.00    -0.572 OA
ATOM     37  O2S IDS d 301     140.036  15.965  87.486  0.00  0.00    -0.572 OA
ATOM     38  O3S IDS d 301     139.318  15.229  89.659  0.00  0.00    -0.572 OA
ENDBRANCH  34  35
ENDBRANCH  28  34
BRANCH  29  39
ATOM     39  O1  IDS d 301     140.135  11.050  88.358  0.00  0.00    -0.368 OA
ATOM     40  H   IDS d 301     140.233  11.739  89.034  0.00  0.00     0.212 HD
ENDBRANCH  29  39
BRANCH  31  41
ATOM     41  C6  IDS d 301     139.656   9.346  84.422  0.00  0.00     0.206 C 
ATOM     42  O62 IDS d 301     138.656   8.719  84.164  0.00  0.00    -0.646 OA
ATOM     43  O61 IDS d 301     140.709   8.924  84.000  0.00  0.00    -0.646 OA
ENDBRANCH  31  41
ENDBRANCH  25  26
ENDBRANCH  11  25
BRANCH  13  44
ATOM     44  C6  SGN d 302     137.592   8.796  80.950  0.00  0.00     0.227 C 
BRANCH  44  45
ATOM     45  O6  SGN d 302     138.571   8.546  79.969  0.00  0.00    -0.254 OA
BRANCH  45  46
ATOM     46  S2  SGN d 302     139.312   7.188  79.746  0.00  0.00     0.251 S 
ATOM     47  O4S SGN d 302     138.305   6.168  79.650  0.00  0.00    -0.572 OA
ATOM     48  O5S SGN d 302     140.032   7.352  78.521  0.00  0.00    -0.572 OA
ATOM     49  O6S SGN d 302     140.170   7.031  80.884  0.00  0.00    -0.572 OA
ENDBRANCH  45  46
ENDBRANCH  44  45
ENDBRANCH  13  44
ENDBRANCH   7   8
ENDBRANCH   4   7
BRANCH   5  50
ATOM     50  O2  IDS d 303     133.889   8.522  77.779  0.00  0.00    -0.244 OA
BRANCH  50  51
ATOM     51  S   IDS d 303     133.653   7.121  78.452  0.00  0.00     0.252 S 
ATOM     52  O2S IDS d 303     132.679   6.467  77.613  0.00  0.00    -0.572 OA
ATOM     53  O1S IDS d 303     134.920   6.441  78.439  0.00  0.00    -0.572 OA
ATOM     54  O3S IDS d 303     133.169   7.375  79.785  0.00  0.00    -0.572 OA
ENDBRANCH  50  51
ENDBRANCH   5  50
BRANCH   2  55
ATOM     55  O3  IDS d 303     132.665  11.817  78.508  0.00  0.00    -0.390 OA
ATOM     56  H   IDS d 303     133.441  12.297  78.837  0.00  0.00     0.210 HD
ENDBRANCH   2  55
BRANCH   3  57
ATOM     57  C6  IDS d 303     136.022  12.625  75.753  0.00  0.00     0.206 C 
ATOM     58  O61 IDS d 303     135.726  13.739  75.371  0.00  0.00    -0.646 OA
ATOM     59  O62 IDS d 303     136.983  12.087  75.244  0.00  0.00    -0.646 OA
ENDBRANCH   3  57
BRANCH   1  60
ATOM     60  O4  IDS d 303     133.884  10.411  75.440  0.00  0.00    -0.348 OA
BRANCH  60  61
ATOM     61  C1  SGN d 304     133.093  10.517  74.276  0.00  0.00     0.282 C 
ATOM     62  C2  SGN d 304     132.781   9.121  73.669  0.00  0.00     0.157 C 
ATOM     63  C3  SGN d 304     134.078   8.488  73.125  0.00  0.00     0.173 C 
ATOM     64  C4  SGN d 304     134.639   9.423  72.021  0.00  0.00     0.186 C 
ATOM     65  C5  SGN d 304     134.932  10.808  72.686  0.00  0.00     0.181 C 
ATOM     66  O5  SGN d 304     133.738  11.348  73.310  0.00  0.00    -0.349 OA
BRANCH  62  67
ATOM     67  N   SGN d 304     132.157   8.294  74.715  0.00  0.00    -0.210 NA
ATOM     68  H   SGN d 304     132.614   8.538  75.594  0.00  0.00     0.140 HD
BRANCH  67  69
ATOM     69  S1  SGN d 304     130.537   8.382  74.985  0.00  0.00     0.156 S 
BRANCH  69  70
ATOM     70  O3S SGN d 304     130.016   7.108  74.585  0.00  0.00    -0.296 OA
ATOM     71  H   SGN d 304     130.115   7.005  73.626  0.00  0.00     0.231 HD
ENDBRANCH  69  70
BRANCH  69  72
ATOM     72  O2S SGN d 304     129.986   9.478  74.229  0.00  0.00    -0.296 OA
ATOM     73  H   SGN d 304     130.082   9.297  73.281  0.00  0.00     0.231 HD
ENDBRANCH  69  72
BRANCH  69  74
ATOM     74  O1S SGN d 304     130.421   8.599  76.400  0.00  0.00    -0.296 OA
ATOM     75  H   SGN d 304     129.484   8.663  76.642  0.00  0.00     0.231 HD
ENDBRANCH  69  74
ENDBRANCH  67  69
ENDBRANCH  62  67
BRANCH  63  76
ATOM     76  O3  SGN d 304     133.783   7.219  72.568  0.00  0.00    -0.391 OA
ATOM     77  H   SGN d 304     133.433   6.636  73.260  0.00  0.00     0.210 HD
ENDBRANCH  63  76
BRANCH  64  78
ATOM     78  O4  SGN d 304     135.639   8.585  71.418  0.00  0.00    -0.348 OA
BRANCH  78  79
ATOM     79  C1  IDS d 305     135.959   8.793  70.065  0.00  0.00     0.294 C 
ATOM     80  C2  IDS d 305     137.381   8.217  69.826  0.00  0.00     0.228 C 
ATOM     81  C3  IDS d 305     137.547   7.793  68.352  0.00  0.00     0.156 C 
ATOM     82  C4  IDS d 305     136.507   6.702  67.968  0.00  0.00     0.077 C 
ATOM     83  C5  IDS d 305     135.209   6.809  68.836  0.00  0.00     0.228 C 
ATOM     84  O5  IDS d 305     134.986   8.191  69.196  0.00  0.00    -0.343 OA
BRANCH  80  85
ATOM     85  O2  IDS d 305     138.342   9.215  70.133  0.00  0.00    -0.244 OA
BRANCH  85  86
ATOM     86  S   IDS d 305     139.454   9.178  71.234  0.00  0.00     0.252 S 
ATOM     87  O1S IDS d 305     140.021  10.497  71.214  0.00  0.00    -0.572 OA
ATOM     88  O2S IDS d 305     138.819   8.882  72.483  0.00  0.00    -0.572 OA
ATOM     89  O3S IDS d 305     140.383   8.169  70.817  0.00  0.00    -0.572 OA
ENDBRANCH  85  86
ENDBRANCH  80  85
BRANCH  81  90
ATOM     90  O3  IDS d 305     138.845   7.267  68.152  0.00  0.00    -0.393 OA
ATOM     91  H   IDS d 305     138.947   7.001  67.225  0.00  0.00     0.210 HD
ENDBRANCH  81  90
BRANCH  83  92
ATOM     92  C6  IDS d 305     133.965   6.255  68.148  0.00  0.00     0.203 C 
ATOM     93  O61 IDS d 305     133.509   5.180  68.472  0.00  0.00    -0.646 OA
ATOM     94  O62 IDS d 305     133.401   6.865  67.266  0.00  0.00    -0.646 OA
ENDBRANCH  83  92
ENDBRANCH  78  79
ENDBRANCH  64  78
BRANCH  65  95
ATOM     95  C6  SGN d 304     135.460  11.887  71.730  0.00  0.00     0.227 C 
BRANCH  95  96
ATOM     96  O6  SGN d 304     134.408  12.304  70.884  0.00  0.00    -0.254 OA
BRANCH  96  97
ATOM     97  S2  SGN d 304     134.524  13.136  69.567  0.00  0.00     0.251 S 
ATOM     98  O5S SGN d 304     133.235  13.007  68.945  0.00  0.00    -0.572 OA
ATOM     99  O4S SGN d 304     135.581  12.553  68.787  0.00  0.00    -0.572 OA
ATOM    100  O6S SGN d 304     134.799  14.483  69.972  0.00  0.00    -0.572 OA
ENDBRANCH  96  97
ENDBRANCH  95  96
ENDBRANCH  65  95
ENDBRANCH  60  61
ENDBRANCH   1  60
TORSDOF 39
