REMARK 27 active torsions
REMARK    1  A    between atoms: atom4  and  atom_
REMARK    2  A    between atoms: atom7  and  atom_
REMARK    3  A    between atoms: atom9  and  atom_
REMARK    4  A    between atoms: atom1  and  atom1
REMARK    5  A    between atoms: atom2  and  atom1
REMARK    6  A    between atoms: atom2  and  atom5
REMARK    7  A    between atoms: atom3  and  atom6
REMARK    8  A    between atoms: atom3  and  atom8
REMARK    9  A    between atoms: atom2  and  atom6
REMARK    10  A    between atoms: atom5  and  atom4
REMARK    11  A    between atoms: atom2  and  atom_
REMARK    12  A    between atoms: atom6  and  atom4
REMARK    13  A    between atoms: atom5  and  atom_
REMARK    14  A    between atoms: atom7  and  atom8
REMARK    15  A    between atoms: atom8  and  atom1
REMARK    16  A    between atoms: atom8  and  atom2
REMARK    17  A    between atoms: atom9  and  atom2
REMARK    18  A    between atoms: atom9  and  atom4
REMARK    19  A    between atoms: atom9  and  atom9
REMARK    20  A    between atoms: atom2  and  atom8
REMARK    21  A    between atoms: atom5  and  atom0
REMARK    22  A    between atoms: atom6  and  atom0
REMARK    23  A    between atoms: atom3  and  atom_
REMARK    24  A    between atoms: atom1  and  atom_
REMARK    25  A    between atoms: atom7  and  atom2
REMARK    26  A    between atoms: atom1  and  atom0
REMARK    27  A    between atoms: atom1  and  atom1
ROOT
ATOM      1  C2  SGN d1711     -13.269  -7.910 -27.971  0.00  0.00     0.160 C 
ATOM      2  C5  SGN d1711     -14.679  -8.702 -25.562  0.00  0.00     0.181 C 
ATOM      3  C3  SGN d1711     -13.734  -6.826 -26.982  0.00  0.00     0.173 C 
ATOM      4  C4  SGN d1711     -14.988  -7.346 -26.259  0.00  0.00     0.186 C 
ATOM      5  C1  SGN d1711     -13.105  -9.281 -27.285  0.00  0.00     0.282 C 
ATOM      6  O5  SGN d1711     -14.305  -9.626 -26.601  0.00  0.00    -0.349 OA
ENDROOT
BRANCH   1  72
ATOM     72  N   SGN d1711     -12.043  -7.557 -28.684  0.00  0.00    -0.189 NA
ATOM     73  H   SGN d1711     -11.269  -7.970 -28.164  0.00  0.00     0.143 HD
BRANCH  72  74
ATOM     74  S1  SGN d1711     -11.859  -7.996 -30.220  0.00  0.00     0.183 S 
ATOM     75  O1S SGN d1711     -12.149  -9.413 -30.318  0.00  0.00    -0.582 OA
ATOM     76  O2S SGN d1711     -12.744  -7.151 -30.961  0.00  0.00    -0.582 OA
ATOM     77  O3S SGN d1711     -10.317  -7.724 -30.512  0.00  0.00    -0.582 OA
ENDBRANCH  72  74
ENDBRANCH   1  72
BRANCH   2  64
ATOM     64  C6  SGN d1711     -15.834  -9.362 -24.807  0.00  0.00     0.227 C 
BRANCH  64  65
ATOM     65  O6  SGN d1711     -16.857  -9.605 -25.764  0.00  0.00    -0.254 OA
ATOM     66  S2  SGN d1711     -18.214 -10.144 -25.262  0.00  0.00     0.251 S 
ATOM     67  O6S SGN d1711     -19.007 -10.427 -26.385  0.00  0.00    -0.572 OA
ATOM     68  O4S SGN d1711     -18.788  -9.042 -24.482  0.00  0.00    -0.572 OA
ATOM     69  O5S SGN d1711     -17.866 -11.374 -24.310  0.00  0.00    -0.572 OA
ENDBRANCH  64  65
ENDBRANCH   2  64
BRANCH   3  70
ATOM     70  O3  SGN d1711     -14.026  -5.600 -27.661  0.00  0.00    -0.391 OA
ATOM     71  H   SGN d1711     -13.228  -5.282 -28.113  0.00  0.00     0.210 HD
ENDBRANCH   3  70
BRANCH   4   7
ATOM      7  O4  SGN d1711     -15.181  -6.502 -25.103  0.00  0.00    -0.348 OA
BRANCH   7   8
ATOM      8  C1  IDS d1712     -16.516  -6.010 -25.002  0.00  0.00     0.294 C 
ATOM      9  C2  IDS d1712     -16.752  -5.588 -23.575  0.00  0.00     0.231 C 
ATOM     10  C3  IDS d1712     -16.119  -4.225 -23.192  0.00  0.00     0.185 C 
ATOM     11  C4  IDS d1712     -16.374  -3.169 -24.258  0.00  0.00     0.195 C 
ATOM     12  C5  IDS d1712     -15.930  -3.756 -25.604  0.00  0.00     0.253 C 
ATOM     13  O5  IDS d1712     -16.718  -4.918 -25.887  0.00  0.00    -0.340 OA
ATOM     19  O3  IDS d1712     -14.705  -4.409 -23.031  0.00  0.00    -0.390 OA
ATOM     20  H   IDS d1712     -14.322  -4.718 -23.867  0.00  0.00     0.210 HD
ATOM     60  C6  IDS d1712     -15.980  -2.744 -26.706  0.00  0.00     0.172 C 
ATOM     61  O62 IDS d1712     -16.686  -2.952 -27.709  0.00  0.00    -0.648 OA
BRANCH   9  14
ATOM     14  O2  IDS d1712     -18.165  -5.645 -23.331  0.00  0.00    -0.244 OA
ATOM     15  S   IDS d1712     -18.739  -5.788 -21.917  0.00  0.00     0.252 S 
ATOM     16  O1S IDS d1712     -20.061  -6.388 -22.141  0.00  0.00    -0.572 OA
ATOM     17  O2S IDS d1712     -17.817  -6.651 -21.172  0.00  0.00    -0.572 OA
ATOM     18  O3S IDS d1712     -18.809  -4.411 -21.343  0.00  0.00    -0.572 OA
ENDBRANCH   9  14
BRANCH  11  21
ATOM     21  O4  IDS d1712     -17.776  -2.874 -24.243  0.00  0.00    -0.348 OA
BRANCH  21  22
ATOM     22  C1  SGN d1713     -18.154  -1.495 -24.407  0.00  0.00     0.282 C 
ATOM     23  C2  SGN d1713     -19.395  -1.235 -23.545  0.00  0.00     0.160 C 
ATOM     24  C3  SGN d1713     -20.567  -2.081 -24.005  0.00  0.00     0.173 C 
ATOM     25  C4  SGN d1713     -20.798  -1.838 -25.494  0.00  0.00     0.186 C 
ATOM     26  C5  SGN d1713     -19.504  -2.051 -26.320  0.00  0.00     0.181 C 
ATOM     27  O5  SGN d1713     -18.447  -1.232 -25.771  0.00  0.00    -0.349 OA
ATOM     28  N   SGN d1713     -19.135  -1.527 -22.156  0.00  0.00    -0.189 NA
ATOM     29  H   SGN d1713     -18.577  -2.381 -22.146  0.00  0.00     0.143 HD
ATOM     34  O3  SGN d1713     -21.737  -1.631 -23.315  0.00  0.00    -0.391 OA
ATOM     35  H   SGN d1713     -21.624  -1.771 -22.362  0.00  0.00     0.210 HD
BRANCH  25  36
ATOM     36  O4  SGN d1713     -21.698  -2.811 -26.050  0.00  0.00    -0.348 OA
BRANCH  36  37
ATOM     37  C1  IDS d1714     -22.868  -2.222 -26.646  0.00  0.00     0.294 C 
ATOM     38  C2  IDS d1714     -23.512  -3.361 -27.392  0.00  0.00     0.228 C 
ATOM     39  C3  IDS d1714     -24.088  -4.447 -26.490  0.00  0.00     0.156 C 
ATOM     40  C4  IDS d1714     -24.772  -3.943 -25.212  0.00  0.00     0.077 C 
ATOM     41  C5  IDS d1714     -24.167  -2.653 -24.673  0.00  0.00     0.224 C 
ATOM     42  O5  IDS d1714     -23.817  -1.717 -25.690  0.00  0.00    -0.343 OA
ATOM     48  O3  IDS d1714     -23.059  -5.396 -26.169  0.00  0.00    -0.393 OA
ATOM     49  H   IDS d1714     -22.360  -4.956 -25.660  0.00  0.00     0.210 HD
ATOM     50  C6  IDS d1714     -24.995  -1.945 -23.613  0.00  0.00     0.170 C 
ATOM     51  O61 IDS d1714     -25.166  -0.707 -23.728  0.00  0.00    -0.648 OA
BRANCH  38  43
ATOM     43  O2  IDS d1714     -24.578  -2.815 -28.186  0.00  0.00    -0.244 OA
ATOM     44  S   IDS d1714     -24.972  -3.316 -29.587  0.00  0.00     0.252 S 
ATOM     45  O1S IDS d1714     -23.913  -2.818 -30.472  0.00  0.00    -0.572 OA
ATOM     46  O3S IDS d1714     -26.327  -2.833 -29.931  0.00  0.00    -0.572 OA
ATOM     47  O2S IDS d1714     -24.954  -4.801 -29.535  0.00  0.00    -0.572 OA
ENDBRANCH  38  43
BRANCH  50  52
ATOM     52  O62 IDS d1714     -25.480  -2.598 -22.659  0.00  0.00    -0.774 OA
ENDBRANCH  50  52
ENDBRANCH  36  37
ENDBRANCH  25  36
BRANCH  26  54
ATOM     54  C6  SGN d1713     -19.625  -1.605 -27.746  0.00  0.00     0.227 C 
BRANCH  54  55
ATOM     55  O6  SGN d1713     -20.083  -0.247 -27.774  0.00  0.00    -0.254 OA
ATOM     56  S2  SGN d1713     -20.565   0.285 -29.169  0.00  0.00     0.251 S 
ATOM     57  O4S SGN d1713     -21.679  -0.505 -29.733  0.00  0.00    -0.572 OA
ATOM     58  O5S SGN d1713     -19.339   0.090 -30.179  0.00  0.00    -0.572 OA
ATOM     59  O6S SGN d1713     -20.862   1.678 -28.925  0.00  0.00    -0.572 OA
ENDBRANCH  54  55
ENDBRANCH  26  54
BRANCH  28  30
ATOM     30  S1  SGN d1713     -18.389  -0.497 -21.183  0.00  0.00     0.183 S 
ATOM     31  O1S SGN d1713     -16.983  -0.581 -21.458  0.00  0.00    -0.582 OA
ATOM     32  O2S SGN d1713     -18.963   0.778 -21.507  0.00  0.00    -0.582 OA
ATOM     33  O3S SGN d1713     -18.636  -1.018 -19.684  0.00  0.00    -0.582 OA
ENDBRANCH  28  30
ENDBRANCH  21  22
ENDBRANCH  11  21
BRANCH  60  62
ATOM     62  O61 IDS d1712     -15.289  -1.712 -26.554  0.00  0.00    -0.774 OA
ENDBRANCH  60  62
ENDBRANCH   7   8
ENDBRANCH   4   7
BRANCH   5  78
ATOM     78  O4  IDS d1710     -12.002  -9.136 -26.386  0.00  0.00    -0.348 OA
BRANCH  78  79
ATOM     79  C4  IDS d1710     -11.412 -10.407 -26.086  0.00  0.00     0.195 C 
ATOM     80  C3  IDS d1710     -10.193 -10.662 -26.978  0.00  0.00     0.185 C 
ATOM     81  C2  IDS d1710      -8.998  -9.757 -26.643  0.00  0.00     0.231 C 
ATOM     82  C1  IDS d1710      -8.718  -9.648 -25.135  0.00  0.00     0.294 C 
ATOM     83  O5  IDS d1710      -9.941  -9.415 -24.438  0.00  0.00    -0.340 OA
ATOM     84  C5  IDS d1710     -10.962 -10.416 -24.617  0.00  0.00     0.253 C 
ATOM     85  O3  IDS d1710      -9.824 -12.039 -26.887  0.00  0.00    -0.390 OA
ATOM     86  H   IDS d1710     -10.590 -12.594 -27.102  0.00  0.00     0.210 HD
ATOM    115  C6  IDS d1710     -12.048 -10.157 -23.606  0.00  0.00     0.172 C 
ATOM    116  O62 IDS d1710     -11.954  -9.094 -22.941  0.00  0.00    -0.648 OA
BRANCH  81  87
ATOM     87  O2  IDS d1710      -9.257  -8.442 -27.156  0.00  0.00    -0.244 OA
ATOM     88  S   IDS d1710      -8.101  -7.501 -27.653  0.00  0.00     0.252 S 
ATOM     89  O3S IDS d1710      -7.597  -8.203 -28.837  0.00  0.00    -0.572 OA
ATOM     90  O1S IDS d1710      -8.654  -6.176 -27.948  0.00  0.00    -0.572 OA
ATOM     91  O2S IDS d1710      -7.097  -7.459 -26.570  0.00  0.00    -0.572 OA
ENDBRANCH  81  87
BRANCH  82  92
ATOM     92  O4  SGN d1709      -8.122 -10.884 -24.705  0.00  0.00    -0.348 OA
BRANCH  92  93
ATOM     93  C4  SGN d1709      -7.483 -10.842 -23.418  0.00  0.00     0.186 C 
ATOM     94  C5  SGN d1709      -6.053 -11.309 -23.707  0.00  0.00     0.181 C 
ATOM     95  O5  SGN d1709      -5.404 -11.455 -22.443  0.00  0.00    -0.350 OA
ATOM     96  C1  SGN d1709      -5.978 -12.397 -21.538  0.00  0.00     0.278 C 
ATOM     97  C2  SGN d1709      -7.408 -11.982 -21.180  0.00  0.00     0.160 C 
ATOM     98  C3  SGN d1709      -8.202 -11.793 -22.478  0.00  0.00     0.173 C 
ATOM    105  O1  SGN d1709      -5.957 -13.715 -22.078  0.00  0.00    -0.369 OA
ATOM    106  H   SGN d1709      -6.353 -14.331 -21.442  0.00  0.00     0.212 HD
ATOM    107  N   SGN d1709      -7.998 -12.979 -20.295  0.00  0.00    -0.189 NA
ATOM    108  H   SGN d1709      -7.710 -13.885 -20.663  0.00  0.00     0.143 HD
ATOM    113  O3  SGN d1709      -9.473 -11.252 -22.115  0.00  0.00    -0.391 OA
ATOM    114  H   SGN d1709      -9.926 -11.865 -21.515  0.00  0.00     0.210 HD
BRANCH  94  99
ATOM     99  C6  SGN d1709      -5.290 -10.221 -24.471  0.00  0.00     0.227 C 
BRANCH  99  100
ATOM    100  O6  SGN d1709      -3.983 -10.670 -24.778  0.00  0.00    -0.254 OA
ATOM    101  S2  SGN d1709      -2.966  -9.692 -25.395  0.00  0.00     0.251 S 
ATOM    102  O6S SGN d1709      -2.801  -8.566 -24.465  0.00  0.00    -0.572 OA
ATOM    103  O5S SGN d1709      -1.554 -10.527 -25.462  0.00  0.00    -0.572 OA
ATOM    104  O4S SGN d1709      -3.401  -9.342 -26.746  0.00  0.00    -0.572 OA
ENDBRANCH  99  100
ENDBRANCH  94  99
BRANCH  107  109
ATOM    109  S1  SGN d1709      -7.716 -13.035 -18.727  0.00  0.00     0.183 S 
ATOM    110  O1S SGN d1709      -8.812 -13.752 -18.114  0.00  0.00    -0.582 OA
ATOM    111  O2S SGN d1709      -6.446 -13.632 -18.405  0.00  0.00    -0.582 OA
ATOM    112  O3S SGN d1709      -7.698 -11.547 -18.245  0.00  0.00    -0.582 OA
ENDBRANCH  107  109
ENDBRANCH  92  93
ENDBRANCH  82  92
BRANCH  115  117
ATOM    117  O61 IDS d1710     -12.988 -10.973 -23.483  0.00  0.00    -0.774 OA
ENDBRANCH  115  117
ENDBRANCH  78  79
ENDBRANCH   5  78
TORSDOF 27
