REMARK  17 active torsions:
REMARK  status: ('A' for Active; 'I' for Inactive)
REMARK    1 I    between atoms: C2_2  and  O2_34 
REMARK    2 I    between atoms: O4_3  and  C4_29 
REMARK    3 I    between atoms: O6_4  and  C6_17 
REMARK    4 I    between atoms: O6_4  and  S2_35 
REMARK    5 I    between atoms: C2_6  and  N_15 
REMARK    6 A    between atoms: O1_8  and  C1_19 
REMARK    6  A    between atoms: O1_8  and  C1_19 
REMARK    7 I    between atoms: C4_9  and  O4_22 
REMARK    8 I    between atoms: C3_10  and  O3_13 
REMARK    9 I    between atoms: O1S_14  and  S1_21 
REMARK   10 I    between atoms: N_15  and  S1_21 
REMARK   11 I    between atoms: C1_16  and  O4_22 
REMARK   12 I    between atoms: C6_17  and  C5_36 
REMARK   13 I    between atoms: O2S_18  and  S1_21 
REMARK   14 I    between atoms: O3S_20  and  S1_21 
REMARK   15 I    between atoms: O3_23  and  C3_25 
REMARK   16 I    between atoms: S_28  and  O2_34 
REMARK   17 I    between atoms: C6_32  and  C5_33 
ROOT
ATOM      1  C2  SGN d 141     -40.818  -4.485  17.460  0.00  0.00     0.157 C 
ATOM      2  C3  SGN d 141     -41.837  -4.898  18.504  0.00  0.00     0.172 C 
ATOM      3  C1  SGN d 141     -39.438  -4.987  17.886  0.00  0.00     0.282 C 
ATOM      4  O5  SGN d 141     -39.417  -6.388  18.088  0.00  0.00    -0.349 OA
ATOM      5  C4  SGN d 141     -41.739  -6.383  18.720  0.00  0.00     0.179 C 
ATOM      6  C5  SGN d 141     -40.326  -6.849  19.049  0.00  0.00     0.181 C 
ENDROOT
BRANCH   3   7
ATOM      7  O4  IDY d 142     -39.044  -4.356  19.076  0.00  0.00    -0.348 OA
BRANCH   7   8
ATOM      8  C4  IDY d 142     -37.785  -3.666  19.536  0.00  0.00     0.195 C 
ATOM      9  C3  IDY d 142     -37.617  -2.365  18.828  0.00  0.00     0.185 C 
ATOM     10  C2  IDY d 142     -38.137  -1.163  19.549  0.00  0.00     0.231 C 
ATOM     11  C1  IDY d 142     -38.042  -1.250  21.050  0.00  0.00     0.293 C 
ATOM     12  O5  IDY d 142     -38.439  -2.480  21.620  0.00  0.00    -0.340 OA
ATOM     13  C5  IDY d 142     -37.773  -3.621  21.056  0.00  0.00     0.257 C 
BRANCH   9  14
ATOM     14  O3  IDY d 142     -36.177  -2.136  18.540  0.00  0.00    -0.390 OA
ATOM     15  H   IDY d 142     -36.070  -1.289  18.079  0.00  0.00     0.210 HD
ENDBRANCH   9  14
BRANCH  10  16
ATOM     16  O2  IDY d 142     -39.523  -0.915  19.229  0.00  0.00    -0.244 OA
BRANCH  16  17
ATOM     17  S   IDY d 142     -40.107   0.456  19.484  0.00  0.00     0.252 S 
ATOM     18  OS3 IDY d 142     -39.625   0.999  20.798  0.00  0.00    -0.572 OA
ATOM     19  OS2 IDY d 142     -39.643   1.365  18.413  0.00  0.00    -0.572 OA
ATOM     20  OS1 IDY d 142     -41.574   0.357  19.443  0.00  0.00    -0.572 OA
ENDBRANCH  16  17
ENDBRANCH  10  16
BRANCH  11  21
ATOM     21  O1  IDY d 142     -37.000  -0.762  21.501  0.00  0.00    -0.363 OA
ATOM     22  C7  IDY d 142     -35.673  -0.290  21.637  0.00  0.00     0.204 C 
ENDBRANCH  11  21
BRANCH  13  23
ATOM     23  C6  IDY d 142     -38.525  -4.806  21.617  0.00  0.00     0.206 C 
ATOM     24  O61 IDY d 142     -37.849  -5.661  22.341  0.00  0.00    -0.646 OA
ATOM     25  O62 IDY d 142     -39.848  -4.607  21.772  0.00  0.00    -0.646 OA
ENDBRANCH  13  23
ENDBRANCH   7   8
ENDBRANCH   3   7
BRANCH   1  26
ATOM     26  N   SGN d 141     -40.800  -3.050  17.329  0.00  0.00    -0.210 NA
ATOM     27  H   SGN d 141     -39.924  -2.724  17.737  0.00  0.00     0.140 HD
BRANCH  26  28
ATOM     28  S1  SGN d 141     -40.906  -2.412  15.892  0.00  0.00     0.156 S 
BRANCH  28  29
ATOM     29  O1S SGN d 141     -41.426  -1.084  16.006  0.00  0.00    -0.296 OA
ATOM     30  H   SGN d 141     -42.300  -1.114  16.427  0.00  0.00     0.231 HD
ENDBRANCH  28  29
BRANCH  28  31
ATOM     31  O2S SGN d 141     -41.820  -3.266  15.210  0.00  0.00    -0.296 OA
ATOM     32  H   SGN d 141     -42.689  -3.217  15.638  0.00  0.00     0.231 HD
ENDBRANCH  28  31
BRANCH  28  33
ATOM     33  O3S SGN d 141     -39.612  -2.465  15.279  0.00  0.00    -0.296 OA
ATOM     34  H   SGN d 141     -39.004  -1.879  15.756  0.00  0.00     0.231 HD
ENDBRANCH  28  33
ENDBRANCH  26  28
ENDBRANCH   1  26
BRANCH   2  35
ATOM     35  O3  SGN d 141     -43.169  -4.657  18.112  0.00  0.00    -0.391 OA
ATOM     36  H   SGN d 141     -43.373  -5.179  17.320  0.00  0.00     0.210 HD
ENDBRANCH   2  35
BRANCH   6  37
ATOM     37  C6  SGN d 141     -40.255  -8.358  19.011  0.00  0.00     0.227 C 
BRANCH  37  38
ATOM     38  O6  SGN d 141     -39.694  -8.744  17.779  0.00  0.00    -0.254 OA
BRANCH  38  39
ATOM     39  S2  SGN d 141     -38.934 -10.090  17.747  0.00  0.00     0.251 S 
ATOM     40  O5S SGN d 141     -39.828 -11.001  18.410  0.00  0.00    -0.572 OA
ATOM     41  O4S SGN d 141     -38.702 -10.458  16.366  0.00  0.00    -0.572 OA
ATOM     42  O6S SGN d 141     -37.693  -9.942  18.496  0.00  0.00    -0.572 OA
ENDBRANCH  38  39
ENDBRANCH  37  38
ENDBRANCH   6  37
BRANCH   5  43
ATOM     43  O4  SGN d 141     -42.611  -6.583  19.794  0.00  0.00    -0.390 OA
ATOM     44  H   SGN d 141     -43.499  -6.277  19.551  0.00  0.00     0.210 HD
ENDBRANCH   5  43
TORSDOF 17
