REMARK  11 active torsions:
REMARK  status: ('A' for Active; 'I' for Inactive)
REMARK    1 I    between atoms: C2_1  and  O2_26 
REMARK    2 I    between atoms: C2_2  and  N_5 
REMARK    3 I    between atoms: C3_3  and  O3_15 
REMARK      I    between atoms: N_5  and  C7_11 
REMARK    4 I    between atoms: C1_6  and  O3_9 
REMARK    5 I    between atoms: C5_7  and  C6_21 
REMARK    6 I    between atoms: O3_9  and  C3_23 
REMARK    7 I    between atoms: C6_12  and  C5_28 
REMARK    8 I    between atoms: C6_12  and  O6_13 
REMARK    9 I    between atoms: C4_14  and  O4_19 
REMARK   10 I    between atoms: O1_17  and  C1_29 
REMARK   11 I    between atoms: O4_19  and  S_22 
ROOT
ATOM      1  C2  ASG d 517      25.296  21.868   0.310  0.00  0.00     0.171 C 
ATOM      2  C4  ASG d 517      27.071  23.424   0.996  0.00  0.00     0.207 C 
ATOM      3  C3  ASG d 517      26.517  22.618  -0.176  0.00  0.00     0.185 C 
ATOM      4  O5  ASG d 517      26.230  21.908   2.592  0.00  0.00    -0.349 OA
ATOM      5  C5  ASG d 517      27.422  22.561   2.204  0.00  0.00     0.181 C 
ATOM      6  C1  ASG d 517      25.694  21.103   1.552  0.00  0.00     0.282 C 
ENDROOT
BRANCH   3   7
ATOM      7  O3  ASG d 517      26.036  23.496  -1.188  0.00  0.00    -0.348 OA
BRANCH   7   8
ATOM      8  C1  GCD d 519      26.747  23.411  -2.440  0.00  0.00     0.298 C 
ATOM      9  C2  GCD d 519      26.063  24.164  -3.590  0.00  0.00     0.206 C 
ATOM     10  C3  GCD d 519      27.026  24.531  -4.744  0.00  0.00     0.177 C 
ATOM     11  C4  GCD d 519      28.168  25.356  -4.178  0.00  0.00     0.051 C 
ATOM     12  C5  GCD d 519      28.616  25.061  -2.945  0.00  0.00     0.147 C 
ATOM     13  O5  GCD d 519      28.047  23.943  -2.230  0.00  0.00    -0.311 OA
BRANCH   9  14
ATOM     14  O2  GCD d 519      25.007  23.339  -4.041  0.00  0.00    -0.388 OA
ATOM     15  H   GCD d 519      25.368  22.495  -4.356  0.00  0.00     0.210 HD
ENDBRANCH   9  14
BRANCH  10  16
ATOM     16  O3  GCD d 519      26.385  25.326  -5.744  0.00  0.00    -0.389 OA
ATOM     17  H   GCD d 519      26.076  26.156  -5.348  0.00  0.00     0.210 HD
ENDBRANCH  10  16
BRANCH  12  18
ATOM     18  C6  GCD d 519      29.708  25.764  -2.289  0.00  0.00     0.233 C 
ATOM     19  O6B GCD d 519      29.827  25.637  -1.054  0.00  0.00    -0.642 OA
ATOM     20  O6A GCD d 519      30.523  26.421  -2.971  0.00  0.00    -0.642 OA
ENDBRANCH  12  18
ENDBRANCH   7   8
ENDBRANCH   3   7
BRANCH   1  21
ATOM     21  N   ASG d 517      24.825  20.883  -0.682  0.00  0.00    -0.349 N 
ATOM     22  C7  ASG d 517      23.668  21.093  -1.333  0.00  0.00     0.214 C 
ATOM     23  C8  ASG d 517      23.310  20.035  -2.380  0.00  0.00     0.117 C 
ATOM     24  O7  ASG d 517      22.918  22.052  -1.076  0.00  0.00    -0.274 OA
ATOM     25  H   ASG d 517      25.356  20.075  -0.867  0.00  0.00     0.163 HD
ENDBRANCH   1  21
BRANCH   2  26
ATOM     26  O4  ASG d 517      26.042  24.336   1.421  0.00  0.00    -0.246 OA
BRANCH  26  27
ATOM     27  S   ASG d 517      26.065  25.956   1.239  0.00  0.00     0.252 S 
ATOM     28  OSB ASG d 517      24.926  26.286   0.222  0.00  0.00    -0.572 OA
ATOM     29  OSC ASG d 517      27.368  26.249   0.718  0.00  0.00    -0.572 OA
ATOM     30  OSA ASG d 517      25.772  26.634   2.490  0.00  0.00    -0.572 OA
ENDBRANCH  26  27
ENDBRANCH   2  26
BRANCH   6  31
ATOM     31  O1  ASG d 517      24.544  20.440   2.020  0.00  0.00    -0.369 OA
ATOM     32  H   ASG d 517      24.177  19.890   1.311  0.00  0.00     0.212 HD
ENDBRANCH   6  31
BRANCH   5  33
ATOM     33  C6  ASG d 517      27.973  23.355   3.390  0.00  0.00     0.199 C 
BRANCH  33  34
ATOM     34  O6  ASG d 517      29.221  23.951   3.101  0.00  0.00    -0.398 OA
ATOM     35  H   ASG d 517      29.870  23.260   2.897  0.00  0.00     0.209 HD
ENDBRANCH  33  34
ENDBRANCH   5  33
TORSDOF 11
