REMARK WARNING: 32 MAX_TORS EXCEEDED!!!
REMARK  45 active torsions:
REMARK  status: ('A' for Active; 'I' for Inactive)
REMARK    1  A    between atoms: O4A_2  and  C49_47 
REMARK    2  A    between atoms: O4A_2  and  S4B_15 
REMARK    3  A    between atoms: C3F_4  and  N3G_69 
REMARK    4  A    between atoms: S17_5  and  O16_54 
REMARK    5  A    between atoms: C5L_6  and  O5M_26 
REMARK    6  A    between atoms: C4F_7  and  O4G_60 
REMARK    7  A    between atoms: N1F_9  and  C1E_19 
REMARK    8  A    between atoms: N1F_9  and  S1G_71 
REMARK    9  A    between atoms: O5J_11  and  S5H_38 
REMARK   10  A    between atoms: C3L_12  and  O3M_62 
REMARK   11  A    between atoms: C29_13  and  O2A_90 
REMARK   12  A    between atoms: S3B_14  and  O3A_85 
REMARK   13  A    between atoms: C20_18  and  O1L_72 
REMARK   14  A    between atoms: O3J_20  and  S3H_80 
REMARK   15  A    between atoms: C31_23  and  C33_44 
REMARK   16  A    between atoms: C46_25  and  O47_33 
REMARK   17  A    between atoms: C51_28  and  C53_48 
REMARK   18  A    between atoms: C5F_29  and  N5G_43 
REMARK   19  A    between atoms: C59_30  and  O5A_59 
REMARK   20  A    between atoms: C21_31  and  C23_64 
REMARK   21  A    between atoms: C26_32  and  O27_76 
REMARK   22  A    between atoms: O1J_34  and  S1G_71 
REMARK   23  A    between atoms: O3K_36  and  S3H_80 
REMARK   24  A    between atoms: O5I_37  and  S5H_38 
REMARK   25  A    between atoms: S5H_38  and  O5K_53 
REMARK   26  A    between atoms: S5H_38  and  N5G_43 
REMARK   27  A    between atoms: C39_39  and  O3A_85 
REMARK   28  A    between atoms: C1K_40  and  O1L_72 
REMARK   29  A    between atoms: C2C_41  and  O2D_45 
REMARK   30  A    between atoms: C33_44  and  O34_74 
REMARK   31  A    between atoms: O2D_45  and  C30_91 
REMARK   32  A    between atoms: C12_46  and  O10_51 
REMARK   33  A    between atoms: C53_48  and  O54_57 
REMARK   34  A    between atoms: O3I_50  and  S3H_80 
REMARK   35  A    between atoms: O16_54  and  C15_68 
REMARK   36  A    between atoms: C43_56  and  C41_65 
REMARK   37  A    between atoms: O54_57  and  S55_58 
REMARK   38  A    between atoms: O4G_60  and  C50_77 
REMARK   39  A    between atoms: O3M_62  and  C40_70 
REMARK   40  A    between atoms: O1C_67  and  C1B_86 
REMARK   41  A    between atoms: C15_68  and  C13_83 
REMARK   42  A    between atoms: N3G_69  and  S3H_80 
REMARK   43  A    between atoms: S1G_71  and  O1H_75 
REMARK   44  A    between atoms: S1G_71  and  O1I_82 
REMARK   45  A    between atoms: O34_74  and  S35_81 
ROOT
ATOM      1  O32 NTO d 869     -16.880  19.916 -21.427  0.00  0.00    -0.349 OA
ATOM      2  C3F NTO d 869     -16.387  18.046 -22.862  0.00  0.00     0.159 C 
ATOM      3  C3L NTO d 869     -17.487  18.837 -22.156  0.00  0.00     0.282 C 
ATOM      4  C31 NTO d 869     -16.056  19.416 -20.362  0.00  0.00     0.181 C 
ATOM      5  C39 NTO d 869     -15.490  17.435 -21.784  0.00  0.00     0.200 C 
ATOM      6  C30 NTO d 869     -14.925  18.542 -20.888  0.00  0.00     0.188 C 
ENDROOT
BRANCH   3   7
ATOM      7  O3M NTO d 869     -18.124  17.935 -21.241  0.00  0.00    -0.348 OA
BRANCH   7   8
ATOM      8  C40 NTO d 869     -19.154  18.611 -20.510  0.00  0.00     0.195 C 
ATOM      9  C46 NTO d 869     -20.332  18.828 -21.457  0.00  0.00     0.185 C 
ATOM     10  C49 NTO d 869     -21.634  18.519 -20.717  0.00  0.00     0.231 C 
ATOM     11  C4F NTO d 869     -21.649  17.054 -20.271  0.00  0.00     0.294 C 
ATOM     12  O42 NTO d 869     -20.371  16.647 -19.759  0.00  0.00    -0.340 OA
ATOM     13  C41 NTO d 869     -19.583  17.767 -19.318  0.00  0.00     0.257 C 
BRANCH   9  14
ATOM     14  O47 NTO d 869     -20.346  20.191 -21.892  0.00  0.00    -0.390 OA
ATOM     15  H   NTO d 869     -20.432  20.775 -21.122  0.00  0.00     0.210 HD
ENDBRANCH   9  14
BRANCH  10  16
ATOM     16  O4A NTO d 869     -22.756  18.785 -21.562  0.00  0.00    -0.244 OA
BRANCH  16  17
ATOM     17  S4B NTO d 869     -23.479  19.926 -21.091  0.00  0.00     0.252 S 
ATOM     18  O4C NTO d 869     -23.648  19.836 -19.603  0.00  0.00    -0.572 OA
ATOM     19  O4D NTO d 869     -22.729  21.177 -21.441  0.00  0.00    -0.572 OA
ATOM     20  O4E NTO d 869     -24.829  19.942 -21.741  0.00  0.00    -0.572 OA
ENDBRANCH  16  17
ENDBRANCH  10  16
BRANCH  11  21
ATOM     21  O4G NTO d 869     -22.702  16.885 -19.311  0.00  0.00    -0.348 OA
BRANCH  21  22
ATOM     22  C50 NTO d 869     -22.864  15.511 -18.929  0.00  0.00     0.186 C 
ATOM     23  C51 NTO d 869     -24.212  14.980 -19.393  0.00  0.00     0.181 C 
ATOM     24  O52 NTO d 869     -24.408  13.621 -18.969  0.00  0.00    -0.349 OA
ATOM     25  C5L NTO d 869     -24.367  13.466 -17.541  0.00  0.00     0.280 C 
ATOM     26  C5F NTO d 869     -23.056  13.995 -16.956  0.00  0.00     0.157 C 
ATOM     27  C59 NTO d 869     -22.807  15.436 -17.404  0.00  0.00     0.173 C 
BRANCH  23  28
ATOM     28  C53 NTO d 869     -24.245  14.986 -20.923  0.00  0.00     0.227 C 
BRANCH  28  29
ATOM     29  O54 NTO d 869     -23.268  14.084 -21.445  0.00  0.00    -0.254 OA
BRANCH  29  30
ATOM     30  S55 NTO d 869     -23.150  13.867 -22.856  0.00  0.00     0.251 S 
ATOM     31  O56 NTO d 869     -21.929  14.561 -23.382  0.00  0.00    -0.572 OA
ATOM     32  O57 NTO d 869     -24.365  14.414 -23.544  0.00  0.00    -0.572 OA
ATOM     33  O58 NTO d 869     -23.044  12.395 -23.117  0.00  0.00    -0.572 OA
ENDBRANCH  29  30
ENDBRANCH  28  29
ENDBRANCH  23  28
BRANCH  25  34
ATOM     34  O5M NTO d 869     -25.502  14.054 -16.893  0.00  0.00    -0.364 OA
ATOM     35  C5N NTO d 869     -26.593  13.129 -16.939  0.00  0.00     0.204 C 
ENDBRANCH  25  34
BRANCH  26  36
ATOM     36  N5G NTO d 869     -23.106  13.929 -15.488  0.00  0.00    -0.210 NA
ATOM     37  H   NTO d 869     -24.079  13.929 -15.183  0.00  0.00     0.140 HD
BRANCH  36  38
ATOM     38  S5H NTO d 869     -22.376  12.567 -14.965  0.00  0.00     0.156 S 
BRANCH  38  39
ATOM     39  O5J NTO d 869     -22.584  11.461 -15.956  0.00  0.00    -0.296 OA
ATOM     40  H   NTO d 869     -22.147  10.655 -15.638  0.00  0.00     0.231 HD
ENDBRANCH  38  39
BRANCH  38  41
ATOM     41  O5I NTO d 869     -20.908  12.828 -14.807  0.00  0.00    -0.296 OA
ATOM     42  H   NTO d 869     -20.468  12.021 -14.496  0.00  0.00     0.231 HD
ENDBRANCH  38  41
BRANCH  38  43
ATOM     43  O5K NTO d 869     -22.961  12.153 -13.647  0.00  0.00    -0.296 OA
ATOM     44  H   NTO d 869     -22.524  11.343 -13.340  0.00  0.00     0.231 HD
ENDBRANCH  38  43
ENDBRANCH  36  38
ENDBRANCH  26  36
BRANCH  27  45
ATOM     45  O5A NTO d 869     -21.505  15.852 -16.980  0.00  0.00    -0.391 OA
ATOM     46  H   NTO d 869     -20.836  15.272 -17.375  0.00  0.00     0.210 HD
ENDBRANCH  27  45
ENDBRANCH  21  22
ENDBRANCH  11  21
BRANCH  13  47
ATOM     47  C43 NTO d 869     -18.331  17.270 -18.612  0.00  0.00     0.206 C 
ATOM     48  O45 NTO d 869     -17.466  16.677 -19.296  0.00  0.00    -0.646 OA
ATOM     49  O44 NTO d 869     -18.220  17.485 -17.377  0.00  0.00    -0.646 OA
ENDBRANCH  13  47
ENDBRANCH   7   8
ENDBRANCH   3   7
BRANCH   2  50
ATOM     50  N3G NTO d 869     -16.988  16.993 -23.701  0.00  0.00    -0.210 NA
ATOM     51  H   NTO d 869     -17.513  16.357 -23.100  0.00  0.00     0.140 HD
BRANCH  50  52
ATOM     52  S3H NTO d 869     -17.998  17.590 -24.838  0.00  0.00     0.156 S 
BRANCH  52  53
ATOM     53  O3J NTO d 869     -17.691  16.959 -26.164  0.00  0.00    -0.296 OA
ATOM     54  H   NTO d 869     -18.291  17.314 -26.838  0.00  0.00     0.231 HD
ENDBRANCH  52  53
BRANCH  52  55
ATOM     55  O3K NTO d 869     -17.820  19.074 -24.961  0.00  0.00    -0.296 OA
ATOM     56  H   NTO d 869     -18.424  19.417 -25.638  0.00  0.00     0.231 HD
ENDBRANCH  52  55
BRANCH  52  57
ATOM     57  O3I NTO d 869     -19.416  17.282 -24.454  0.00  0.00    -0.296 OA
ATOM     58  H   NTO d 869     -20.017  17.636 -25.128  0.00  0.00     0.231 HD
ENDBRANCH  52  57
ENDBRANCH  50  52
ENDBRANCH   2  50
BRANCH   4  59
ATOM     59  C33 NTO d 869     -15.455  20.593 -19.588  0.00  0.00     0.227 C 
BRANCH  59  60
ATOM     60  O34 NTO d 869     -14.598  21.384 -20.417  0.00  0.00    -0.254 OA
BRANCH  60  61
ATOM     61  S35 NTO d 869     -13.858  22.484 -19.871  0.00  0.00     0.251 S 
ATOM     62  O37 NTO d 869     -14.508  22.942 -18.599  0.00  0.00    -0.572 OA
ATOM     63  O38 NTO d 869     -13.840  23.606 -20.865  0.00  0.00    -0.572 OA
ATOM     64  O36 NTO d 869     -12.450  22.058 -19.582  0.00  0.00    -0.572 OA
ENDBRANCH  60  61
ENDBRANCH  59  60
ENDBRANCH   4  59
BRANCH   5  65
ATOM     65  O3A NTO d 869     -14.421  16.699 -22.390  0.00  0.00    -0.247 OA
BRANCH  65  66
ATOM     66  S3B NTO d 869     -14.581  15.293 -22.173  0.00  0.00     0.252 S 
ATOM     67  O3C NTO d 869     -15.871  14.829 -22.781  0.00  0.00    -0.572 OA
ATOM     68  O3D NTO d 869     -13.445  14.558 -22.820  0.00  0.00    -0.572 OA
ATOM     69  O3E NTO d 869     -14.595  14.997 -20.702  0.00  0.00    -0.572 OA
ENDBRANCH  65  66
ENDBRANCH   5  65
BRANCH   6  70
ATOM     70  O2D NTO d 869     -14.213  17.993 -19.768  0.00  0.00    -0.348 OA
BRANCH  70  71
ATOM     71  C2C NTO d 869     -12.853  18.454 -19.705  0.00  0.00     0.292 C 
ATOM     72  C29 NTO d 869     -12.325  18.232 -18.285  0.00  0.00     0.204 C 
ATOM     73  C26 NTO d 869     -10.840  18.591 -18.200  0.00  0.00     0.183 C 
ATOM     74  C20 NTO d 869     -10.076  17.790 -19.253  0.00  0.00     0.195 C 
ATOM     75  C21 NTO d 869     -10.671  18.133 -20.610  0.00  0.00     0.257 C 
ATOM     76  O22 NTO d 869     -12.056  17.748 -20.670  0.00  0.00    -0.340 OA
BRANCH  72  77
ATOM     77  O2A NTO d 869     -13.061  19.043 -17.368  0.00  0.00    -0.388 OA
ATOM     78  H   NTO d 869     -12.948  19.978 -17.600  0.00  0.00     0.210 HD
ENDBRANCH  72  77
BRANCH  73  79
ATOM     79  O27 NTO d 869     -10.353  18.269 -16.894  0.00  0.00    -0.390 OA
ATOM     80  H   NTO d 869     -10.476  17.321 -16.727  0.00  0.00     0.210 HD
ENDBRANCH  73  79
BRANCH  74  81
ATOM     81  O1L NTO d 869      -8.682  18.127 -19.277  0.00  0.00    -0.348 OA
BRANCH  81  82
ATOM     82  C1K NTO d 869      -8.021  17.734 -18.066  0.00  0.00     0.282 C 
ATOM     83  O14 NTO d 869      -7.249  16.543 -18.285  0.00  0.00    -0.349 OA
ATOM     84  C13 NTO d 869      -6.407  16.680 -19.441  0.00  0.00     0.181 C 
ATOM     85  C12 NTO d 869      -5.408  17.824 -19.254  0.00  0.00     0.179 C 
ATOM     86  C1B NTO d 869      -6.130  19.124 -18.889  0.00  0.00     0.172 C 
ATOM     87  C1E NTO d 869      -7.072  18.879 -17.710  0.00  0.00     0.157 C 
BRANCH  84  88
ATOM     88  C15 NTO d 869      -5.628  15.372 -19.606  0.00  0.00     0.227 C 
BRANCH  88  89
ATOM     89  O16 NTO d 869      -6.518  14.259 -19.711  0.00  0.00    -0.254 OA
BRANCH  89  90
ATOM     90  S17 NTO d 869      -6.017  12.918 -19.661  0.00  0.00     0.251 S 
ATOM     91  O18 NTO d 869      -5.902  12.483 -18.231  0.00  0.00    -0.572 OA
ATOM     92  O19 NTO d 869      -4.670  12.859 -20.318  0.00  0.00    -0.572 OA
ATOM     93  O1A NTO d 869      -6.971  12.013 -20.379  0.00  0.00    -0.572 OA
ENDBRANCH  89  90
ENDBRANCH  88  89
ENDBRANCH  84  88
BRANCH  85  94
ATOM     94  O10 NTO d 869      -4.700  18.022 -20.480  0.00  0.00    -0.390 OA
ATOM     95  H   NTO d 869      -5.328  18.253 -21.182  0.00  0.00     0.210 HD
ENDBRANCH  85  94
BRANCH  86  96
ATOM     96  O1C NTO d 869      -5.169  20.122 -18.537  0.00  0.00    -0.391 OA
ATOM     97  H   NTO d 869      -5.627  20.945 -18.306  0.00  0.00     0.210 HD
ENDBRANCH  86  96
BRANCH  87  98
ATOM     98  N1F NTO d 869      -7.876  20.084 -17.471  0.00  0.00    -0.210 NA
ATOM     99  H   NTO d 869      -8.825  19.815 -17.212  0.00  0.00     0.140 HD
BRANCH  98 100
ATOM    100  S1G NTO d 869      -7.203  20.943 -16.261  0.00  0.00     0.156 S 
BRANCH 100 101
ATOM    101  O1J NTO d 869      -8.002  22.194 -16.045  0.00  0.00    -0.296 OA
ATOM    102  H   NTO d 869      -7.995  22.726 -16.856  0.00  0.00     0.231 HD
ENDBRANCH 100 101
BRANCH 100 103
ATOM    103  O1H NTO d 869      -5.791  21.293 -16.625  0.00  0.00    -0.296 OA
ATOM    104  H   NTO d 869      -5.789  21.825 -17.436  0.00  0.00     0.231 HD
ENDBRANCH 100 103
BRANCH 100 105
ATOM    105  O1I NTO d 869      -7.213  20.120 -15.006  0.00  0.00    -0.296 OA
ATOM    106  H   NTO d 869      -8.128  19.896 -14.774  0.00  0.00     0.231 HD
ENDBRANCH 100 105
ENDBRANCH  98 100
ENDBRANCH  87  98
ENDBRANCH  81  82
ENDBRANCH  74  81
BRANCH  75 107
ATOM    107  C23 NTO d 869      -9.846  17.429 -21.677  0.00  0.00     0.206 C 
ATOM    108  O24 NTO d 869     -10.250  16.320 -22.101  0.00  0.00    -0.646 OA
ATOM    109  O25 NTO d 869      -8.793  17.988 -22.064  0.00  0.00    -0.646 OA
ENDBRANCH  75 107
ENDBRANCH  70  71
ENDBRANCH   6  70
TORSDOF 45
