REMARK WARNING: 32 MAX_TORS EXCEEDED!!!
REMARK  42 active torsions:
REMARK  status: ('A' for Active; 'I' for Inactive)
REMARK    1  A    between atoms: C4_1  and  O4_97 
REMARK       I    between atoms: N2_3  and  C7_18 
REMARK    2  A    between atoms: N2_3  and  C2_58 
REMARK    3  A    between atoms: O2_4  and  C2_81 
REMARK    4  A    between atoms: C1_5  and  O4_96 
REMARK       I    between atoms: C7_7  and  N2_53 
REMARK    5  A    between atoms: O6_9  and  C6_25 
REMARK    6  A    between atoms: O4_10  and  C4_79 
REMARK    7  A    between atoms: O1_11  and  C1_70 
REMARK    8  A    between atoms: C4_16  and  O4_46 
REMARK    9  A    between atoms: O6_19  and  C6_73 
REMARK   10  A    between atoms: C5_20  and  C6_41 
REMARK   11  A    between atoms: C4_22  and  O4_23 
REMARK   12  A    between atoms: O3_24  and  C3_30 
REMARK   13  A    between atoms: O3_24  and  C1_28 
REMARK   14  A    between atoms: C6_25  and  C5_75 
REMARK   15  A    between atoms: O3_26  and  C3_108 
REMARK   16  A    between atoms: O2_31  and  C2_37 
REMARK   17  A    between atoms: C2_34  and  N2_53 
REMARK   18  A    between atoms: O3_35  and  C3_67 
REMARK   19  A    between atoms: C3_38  and  O3_82 
REMARK   20  A    between atoms: O6B_39  and  C6_41 
REMARK       I    between atoms: C7_42  and  N2_77 
REMARK   21  A    between atoms: O4_43  and  C4_63 
REMARK   22  A    between atoms: O4_43  and  C1_89 
REMARK   23  A    between atoms: C2_45  and  N2_48 
REMARK   24  A    between atoms: O4_47  and  C4_78 
REMARK   25  A    between atoms: O4_47  and  C1_61 
REMARK       I    between atoms: N2_48  and  C7_50 
REMARK   26  A    between atoms: C2_54  and  O2_93 
REMARK   27  A    between atoms: C5_60  and  C6_73 
REMARK   28  A    between atoms: O6_62  and  C6_103 
REMARK   29  A    between atoms: C6_64  and  C5_92 
REMARK   30  A    between atoms: C6_64  and  O6_102 
REMARK   31  A    between atoms: C3_65  and  O3_110 
REMARK   32  A    between atoms: C5_69  and  C6_98 
REMARK   33  A    between atoms: O3_72  and  C3_101 
REMARK   34  A    between atoms: O3_74  and  C3_86 
REMARK   35  A    between atoms: O3_74  and  C1_83 
REMARK   36  A    between atoms: N2_77  and  C2_87 
REMARK   37  A    between atoms: O3_82  and  C1_106 
REMARK   38  A    between atoms: O6B_88  and  C6_91 
REMARK   39  A    between atoms: C6_91  and  C5_104 
REMARK   40  A    between atoms: C4_95  and  O4_96 
REMARK   41  A    between atoms: C6_98  and  O6B_112 
REMARK   42  A    between atoms: C5_99  and  C6_103 
ROOT
ATOM      1  C5  BDP d1178      11.104 -12.556   6.855  0.00  0.00     0.253 C 
ATOM      2  O5  BDP d1178      11.351 -12.249   8.212  0.00  0.00    -0.340 OA
ATOM      3  C4  BDP d1178      11.112 -11.288   6.016  0.00  0.00     0.195 C 
ATOM      4  C3  BDP d1178      10.250 -10.169   6.633  0.00  0.00     0.183 C 
ATOM      5  C2  BDP d1178      10.580  -9.999   8.089  0.00  0.00     0.204 C 
ATOM      6  C1  BDP d1178      10.425 -11.339   8.777  0.00  0.00     0.292 C 
ENDROOT
BRANCH   3   7
ATOM      7  O4  BDP d1178      10.552 -11.537   4.748  0.00  0.00    -0.348 OA
BRANCH   7   8
ATOM      8  C1  NAG d1179      11.433 -11.643   3.626  0.00  0.00     0.286 C 
ATOM      9  O5  NAG d1179      11.653 -10.389   3.054  0.00  0.00    -0.349 OA
ATOM     10  C5  NAG d1179      12.503 -10.452   1.923  0.00  0.00     0.179 C 
ATOM     11  C4  NAG d1179      11.814 -11.211   0.792  0.00  0.00     0.180 C 
ATOM     12  C3  NAG d1179      11.401 -12.594   1.279  0.00  0.00     0.183 C 
ATOM     13  C2  NAG d1179      10.655 -12.483   2.619  0.00  0.00     0.171 C 
BRANCH  10  14
ATOM     14  C6  NAG d1179      12.829  -9.017   1.545  0.00  0.00     0.198 C 
BRANCH  14  15
ATOM     15  O6  NAG d1179      11.637  -8.270   1.409  0.00  0.00    -0.398 OA
ATOM     16  HO6 NAG d1179      10.884  -8.759   1.656  0.00  0.00     0.209 HD
ENDBRANCH  14  15
ENDBRANCH  10  14
BRANCH  11  17
ATOM     17  O4  NAG d1179      12.704 -11.344  -0.312  0.00  0.00    -0.390 OA
ATOM     18  HO4 NAG d1179      12.865 -12.250  -0.524  0.00  0.00     0.210 HD
ENDBRANCH  11  17
BRANCH  12  19
ATOM     19  O3  NAG d1179      10.557 -13.185   0.302  0.00  0.00    -0.348 OA
BRANCH  19  20
ATOM     20  C1  BDP d1180      11.090 -14.412  -0.216  0.00  0.00     0.292 C 
ATOM     21  C2  BDP d1180       9.929 -15.174  -0.855  0.00  0.00     0.204 C 
ATOM     22  C3  BDP d1180      10.382 -16.335  -1.736  0.00  0.00     0.183 C 
ATOM     23  C4  BDP d1180      11.561 -15.929  -2.604  0.00  0.00     0.195 C 
ATOM     24  C5  BDP d1180      12.638 -15.244  -1.777  0.00  0.00     0.253 C 
ATOM     25  O5  BDP d1180      12.095 -14.103  -1.150  0.00  0.00    -0.340 OA
BRANCH  21  26
ATOM     26  O2  BDP d1180       9.118 -15.697   0.175  0.00  0.00    -0.388 OA
ATOM     27  HB  BDP d1180       9.541 -15.364   1.036  0.00  0.00     0.210 HD
ENDBRANCH  21  26
BRANCH  22  28
ATOM     28  O3  BDP d1180       9.309 -16.722  -2.576  0.00  0.00    -0.390 OA
ATOM     29  HC  BDP d1180       8.561 -16.222  -2.347  0.00  0.00     0.210 HD
ENDBRANCH  22  28
BRANCH  23  30
ATOM     30  O4  BDP d1180      12.095 -17.093  -3.174  0.00  0.00    -0.348 OA
BRANCH  30  31
ATOM     31  C1  NAG d1181      11.945 -17.124  -4.603  0.00  0.00     0.286 C 
ATOM     32  C2  NAG d1181      12.805 -18.311  -5.042  0.00  0.00     0.170 C 
ATOM     33  C3  NAG d1181      12.606 -18.629  -6.515  0.00  0.00     0.177 C 
ATOM     34  C4  NAG d1181      11.117 -18.904  -6.689  0.00  0.00     0.180 C 
ATOM     35  C5  NAG d1181      10.382 -17.592  -6.362  0.00  0.00     0.179 C 
ATOM     36  O5  NAG d1181      10.586 -17.273  -4.988  0.00  0.00    -0.349 OA
BRANCH  32  37
ATOM     37  N2  NAG d1181      14.203 -18.042  -4.752  0.00  0.00    -0.349 N 
ATOM     38  HN2 NAG d1181      14.632 -17.202  -5.184  0.00  0.00     0.163 HD
ATOM     39  C7  NAG d1181      14.930 -18.787  -3.905  0.00  0.00     0.214 C 
ATOM     40  C8  NAG d1181      14.638 -20.259  -3.821  0.00  0.00     0.117 C 
ATOM     41  O7  NAG d1181      15.825 -18.310  -3.210  0.00  0.00    -0.274 OA
ENDBRANCH  32  37
BRANCH  33  42
ATOM     42  O3  NAG d1181      13.409 -19.721  -6.932  0.00  0.00    -0.391 OA
ATOM     43  HO3 NAG d1181      13.780 -20.160  -6.231  0.00  0.00     0.210 HD
ENDBRANCH  33  42
BRANCH  34  44
ATOM     44  O4  NAG d1181      10.864 -19.374  -7.995  0.00  0.00    -0.390 OA
ATOM     45  HO4 NAG d1181      11.636 -19.129  -8.686  0.00  0.00     0.210 HD
ENDBRANCH  34  44
BRANCH  35  46
ATOM     46  C6  NAG d1181       8.886 -17.596  -6.708  0.00  0.00     0.198 C 
BRANCH  46  47
ATOM     47  O6  NAG d1181       8.101 -18.001  -5.605  0.00  0.00    -0.398 OA
ATOM     48  H   NAG d1181       7.164 -17.993  -5.855  0.00  0.00     0.209 HD
ENDBRANCH  46  47
ENDBRANCH  35  46
ENDBRANCH  30  31
ENDBRANCH  23  30
BRANCH  24  49
ATOM     49  C6  BDP d1180      13.828 -14.802  -2.615  0.00  0.00     0.172 C 
ATOM     50  O6A BDP d1180      14.910 -15.397  -2.423  0.00  0.00    -0.648 OA
BRANCH  49  51
ATOM     51  O6B BDP d1180      13.655 -13.857  -3.428  0.00  0.00    -0.774 OA
ATOM     52  H   BDP d1180      12.810 -13.462  -3.514  0.00  0.00     0.167 HD
ENDBRANCH  49  51
ENDBRANCH  24  49
ENDBRANCH  19  20
ENDBRANCH  12  19
BRANCH  13  53
ATOM     53  N2  NAG d1179      10.349 -13.772   3.213  0.00  0.00    -0.349 N 
ATOM     54  C7  NAG d1179       9.134 -14.312   3.135  0.00  0.00     0.214 C 
ATOM     55  O7  NAG d1179       8.223 -13.848   2.457  0.00  0.00    -0.274 OA
ATOM     56  C8  NAG d1179       8.935 -15.560   3.927  0.00  0.00     0.117 C 
ATOM     57  HN2 NAG d1179      11.127 -14.411   3.275  0.00  0.00     0.163 HD
ENDBRANCH  13  53
ENDBRANCH   7   8
ENDBRANCH   3   7
BRANCH   1  58
ATOM     58  C6  BDP d1178      12.192 -13.527   6.378  0.00  0.00     0.172 C 
ATOM     59  O6A BDP d1178      13.321 -13.452   6.940  0.00  0.00    -0.648 OA
BRANCH  58  60
ATOM     60  O6B BDP d1178      11.912 -14.343   5.456  0.00  0.00    -0.774 OA
ATOM     61  H   BDP d1178      11.054 -14.348   5.080  0.00  0.00     0.167 HD
ENDBRANCH  58  60
ENDBRANCH   1  58
BRANCH   4  62
ATOM     62  O3  BDP d1178      10.590  -8.966   5.968  0.00  0.00    -0.390 OA
ATOM     63  HC  BDP d1178      10.933  -8.305   6.570  0.00  0.00     0.210 HD
ENDBRANCH   4  62
BRANCH   5  64
ATOM     64  O2  BDP d1178       9.704  -9.055   8.649  0.00  0.00    -0.388 OA
ATOM     65  HB  BDP d1178       9.152  -9.513   9.352  0.00  0.00     0.210 HD
ENDBRANCH   5  64
BRANCH   6  66
ATOM     66  O3  NAG d1177      10.670 -11.123  10.174  0.00  0.00    -0.348 OA
BRANCH  66  67
ATOM     67  C3  NAG d1177      10.384 -12.253  10.952  0.00  0.00     0.183 C 
ATOM     68  C2  NAG d1177       9.213 -11.887  11.849  0.00  0.00     0.171 C 
ATOM     69  C1  NAG d1177       8.992 -12.956  12.918  0.00  0.00     0.286 C 
ATOM     70  O5  NAG d1177      10.174 -13.136  13.662  0.00  0.00    -0.349 OA
ATOM     71  C5  NAG d1177      11.262 -13.623  12.886  0.00  0.00     0.179 C 
ATOM     72  C4  NAG d1177      11.615 -12.619  11.800  0.00  0.00     0.180 C 
BRANCH  68  73
ATOM     73  N2  NAG d1177       7.954 -11.763  11.092  0.00  0.00    -0.349 N 
ATOM     74  C7  NAG d1177       7.319 -10.612  10.858  0.00  0.00     0.214 C 
ATOM     75  C8  NAG d1177       6.046 -10.812  10.077  0.00  0.00     0.117 C 
ATOM     76  O7  NAG d1177       7.700  -9.474  11.282  0.00  0.00    -0.274 OA
ATOM     77  HN2 NAG d1177       7.399 -12.601  11.034  0.00  0.00     0.163 HD
ENDBRANCH  68  73
BRANCH  69  78
ATOM     78  O4  BDP d1176       7.901 -12.567  13.765  0.00  0.00    -0.348 OA
BRANCH  78  79
ATOM     79  C4  BDP d1176       7.296 -13.523  14.622  0.00  0.00     0.195 C 
ATOM     80  C5  BDP d1176       5.772 -13.482  14.483  0.00  0.00     0.253 C 
ATOM     81  O5  BDP d1176       5.100 -14.402  15.349  0.00  0.00    -0.340 OA
ATOM     82  C1  BDP d1176       5.315 -14.207  16.731  0.00  0.00     0.292 C 
ATOM     83  C2  BDP d1176       6.818 -14.233  17.016  0.00  0.00     0.204 C 
ATOM     84  C3  BDP d1176       7.628 -13.300  16.107  0.00  0.00     0.183 C 
BRANCH  80  85
ATOM     85  C6  BDP d1176       5.352 -13.910  13.096  0.00  0.00     0.172 C 
ATOM     86  O6A BDP d1176       5.577 -15.096  12.735  0.00  0.00    -0.648 OA
BRANCH  85  87
ATOM     87  O6B BDP d1176       4.762 -13.054  12.384  0.00  0.00    -0.774 OA
ATOM     88  H   BDP d1176       4.625 -12.187  12.711  0.00  0.00     0.167 HD
ENDBRANCH  85  87
ENDBRANCH  80  85
BRANCH  82  89
ATOM     89  O3  NAG d1175       4.706 -15.282  17.480  0.00  0.00    -0.348 OA
BRANCH  89  90
ATOM     90  C3  NAG d1175       3.340 -15.138  17.816  0.00  0.00     0.183 C 
ATOM     91  C4  NAG d1175       2.397 -15.683  16.734  0.00  0.00     0.180 C 
ATOM     92  C5  NAG d1175       0.950 -15.791  17.230  0.00  0.00     0.179 C 
ATOM     93  O5  NAG d1175       0.867 -16.497  18.454  0.00  0.00    -0.349 OA
ATOM     94  C1  NAG d1175       1.681 -15.899  19.453  0.00  0.00     0.282 C 
ATOM     95  C2  NAG d1175       3.151 -15.982  19.067  0.00  0.00     0.171 C 
BRANCH  91  96
ATOM     96  O4  NAG d1175       2.467 -14.929  15.523  0.00  0.00    -0.390 OA
ATOM     97  HO4 NAG d1175       3.094 -14.171  15.694  0.00  0.00     0.210 HD
ENDBRANCH  91  96
BRANCH  92  98
ATOM     98  C6  NAG d1175       0.077 -16.484  16.195  0.00  0.00     0.198 C 
BRANCH  98  99
ATOM     99  O6  NAG d1175      -1.269 -16.251  16.511  0.00  0.00    -0.398 OA
ATOM    100  HO6 NAG d1175      -1.354 -15.694  17.254  0.00  0.00     0.209 HD
ENDBRANCH  98  99
ENDBRANCH  92  98
BRANCH  94 101
ATOM    101  O1  NAG d1175       1.526 -16.597  20.656  0.00  0.00    -0.369 OA
ATOM    102  HO1 NAG d1175       2.288 -16.917  21.011  0.00  0.00     0.212 HD
ENDBRANCH  94 101
BRANCH  95 103
ATOM    103  N2  NAG d1175       3.967 -15.540  20.209  0.00  0.00    -0.349 N 
ATOM    104  HN2 NAG d1175       3.493 -14.993  20.912  0.00  0.00     0.163 HD
ATOM    105  C7  NAG d1175       5.232 -15.904  20.454  0.00  0.00     0.214 C 
ATOM    106  O7  NAG d1175       5.969 -15.238  21.198  0.00  0.00    -0.274 OA
ATOM    107  C8  NAG d1175       5.763 -17.146  19.814  0.00  0.00     0.117 C 
ENDBRANCH  95 103
ENDBRANCH  89  90
ENDBRANCH  82  89
BRANCH  83 108
ATOM    108  O2  BDP d1176       7.014 -13.855  18.368  0.00  0.00    -0.388 OA
ATOM    109  HB  BDP d1176       6.144 -13.679  18.812  0.00  0.00     0.210 HD
ENDBRANCH  83 108
BRANCH  84 110
ATOM    110  O3  BDP d1176       9.012 -13.490  16.376  0.00  0.00    -0.390 OA
ATOM    111  HC  BDP d1176       9.118 -14.232  17.068  0.00  0.00     0.210 HD
ENDBRANCH  84 110
ENDBRANCH  78  79
ENDBRANCH  69  78
BRANCH  71 112
ATOM    112  C6  NAG d1177      12.433 -13.918  13.838  0.00  0.00     0.198 C 
BRANCH 112 113
ATOM    113  O6  NAG d1177      12.818 -12.753  14.546  0.00  0.00    -0.398 OA
ATOM    114  HO6 NAG d1177      12.258 -12.107  14.248  0.00  0.00     0.209 HD
ENDBRANCH 112 113
ENDBRANCH  71 112
BRANCH  72 115
ATOM    115  O4  NAG d1177      12.642 -13.148  10.984  0.00  0.00    -0.390 OA
ATOM    116  HO4 NAG d1177      12.245 -13.205  10.030  0.00  0.00     0.210 HD
ENDBRANCH  72 115
ENDBRANCH  66  67
ENDBRANCH   6  66
TORSDOF 42
