REMARK  0 active torsions:
REMARK  status: ('A' for Active; 'I' for Inactive)
REMARK       I    between atoms: C5_1  and  C6_17 
REMARK       I    between atoms: C4_2  and  O4_74 
REMARK       I    between atoms: C7_4  and  N_56 
REMARK       I    between atoms: C3_5  and  O1_15 
REMARK       I    between atoms: O1_7  and  C1_31 
REMARK       I    between atoms: C5_9  and  C6_53 
REMARK       I    between atoms: C5_12  and  C6_33 
REMARK       I    between atoms: C5_13  and  C6_18 
REMARK       I    between atoms: O1_15  and  C1_35 
REMARK       I    between atoms: O2_16  and  C2_30 
REMARK       I    between atoms: C6_18  and  O6_44 
REMARK       I    between atoms: C5_19  and  C6_34 
REMARK       I    between atoms: O6_20  and  C6_33 
REMARK       I    between atoms: O1_21  and  C4_23 
REMARK       I    between atoms: O1_21  and  C1_45 
REMARK       I    between atoms: C7_24  and  N_71 
REMARK       I    between atoms: O1_25  and  C3_65 
REMARK       I    between atoms: O1_25  and  C1_69 
REMARK       I    between atoms: C2_27  and  O2_89 
REMARK       I    between atoms: C3_28  and  O3_40 
REMARK       I    between atoms: C7_29  and  N_67 
REMARK       I    between atoms: C6_36  and  C5_41 
REMARK       I    between atoms: O4_38  and  C4_82 
REMARK       I    between atoms: O4_38  and  S_70 
REMARK       I    between atoms: C2_39  and  O2_46 
REMARK       I    between atoms: S_43  and  O4_74 
REMARK       I    between atoms: O3_49  and  C3_77 
REMARK       I    between atoms: C1_50  and  O1_79 
REMARK       I    between atoms: C4_51  and  O4_84 
REMARK       I    between atoms: S_52  and  O4_84 
REMARK       I    between atoms: C6_53  and  O6_73 
REMARK       I    between atoms: C2_54  and  N_67 
REMARK       I    between atoms: C2_55  and  N_56 
REMARK       I    between atoms: C2_57  and  N_71 
REMARK       I    between atoms: O3_59  and  C3_87 
REMARK       I    between atoms: O1_60  and  C4_63 
REMARK       I    between atoms: O1_60  and  C1_85 
REMARK       I    between atoms: O1_79  and  C4_83 
ROOT
ATOM      1  C5  BDP d 218      26.132 -16.267  94.090  0.00  0.00     0.257 C 
ATOM      2  O1  BDP d 218      24.793 -15.958  97.421  0.00  0.00    -0.348 OA
ATOM      3  C6  BDP d 218      25.539 -15.914  92.727  0.00  0.00     0.206 C 
ATOM      4  O6B BDP d 218      24.583 -16.600  92.302  0.00  0.00    -0.646 OA
ATOM      5  C2  BDP d 218      26.193 -17.703  96.533  0.00  0.00     0.204 C 
ATOM      6  C1  BDP d 218      25.742 -16.250  96.413  0.00  0.00     0.292 C 
ATOM      7  O5  BDP d 218      25.181 -16.079  95.126  0.00  0.00    -0.340 OA
ATOM      8  O3  BDP d 218      27.565 -19.380  95.557  0.00  0.00    -0.390 OA
ATOM      9  O6A BDP d 218      26.050 -14.967  92.088  0.00  0.00    -0.646 OA
ATOM     10  C4  BDP d 218      26.634 -17.708  94.088  0.00  0.00     0.195 C 
ATOM     11  C3  BDP d 218      27.220 -18.020  95.461  0.00  0.00     0.183 C 
ATOM     12  O2  BDP d 218      26.753 -17.954  97.803  0.00  0.00    -0.388 OA
ATOM     13  H   BDP d 218      27.935 -19.558  96.436  0.00  0.00     0.210 HD
ATOM     14  H   BDP d 218      27.534 -17.392  97.929  0.00  0.00     0.210 HD
ATOM     15  C4  ASG d 219      28.518 -20.236  90.015  0.00  0.00     0.207 C 
ATOM     16  C5  ASG d 219      27.440 -20.644  91.056  0.00  0.00     0.181 C 
ATOM     17  O5  ASG d 219      27.694 -19.816  92.254  0.00  0.00    -0.349 OA
ATOM     18  C8  ASG d 219      29.113 -13.964  90.862  0.00  0.00     0.117 C 
ATOM     19  C7  ASG d 219      29.306 -15.481  91.063  0.00  0.00     0.214 C 
ATOM     20  S   ASG d 219      30.715 -21.744  89.911  0.00  0.00     0.252 S 
ATOM     21  OSA ASG d 219      31.097 -21.359  88.550  0.00  0.00    -0.572 OA
ATOM     22  O7  ASG d 219      30.220 -15.879  91.694  0.00  0.00    -0.274 OA
ATOM     23  C6  ASG d 219      27.410 -22.181  91.358  0.00  0.00     0.199 C 
ATOM     24  C2  ASG d 219      28.437 -17.874  90.810  0.00  0.00     0.171 C 
ATOM     25  O1  ASG d 219      27.675 -17.558  93.186  0.00  0.00    -0.348 OA
ATOM     26  C3  ASG d 219      28.252 -18.793  89.613  0.00  0.00     0.185 C 
ATOM     27  OSB ASG d 219      29.959 -22.995  89.923  0.00  0.00    -0.572 OA
ATOM     28  N   ASG d 219      28.351 -16.434  90.503  0.00  0.00    -0.349 N 
ATOM     29  O6  ASG d 219      26.599 -22.652  92.425  0.00  0.00    -0.398 OA
ATOM     30  O4  ASG d 219      29.820 -20.487  90.517  0.00  0.00    -0.246 OA
ATOM     31  OSC ASG d 219      31.888 -21.955  90.757  0.00  0.00    -0.572 OA
ATOM     32  C1  ASG d 219      27.535 -18.344  92.010  0.00  0.00     0.286 C 
ATOM     33  H   ASG d 219      27.636 -16.109  89.909  0.00  0.00     0.163 HD
ATOM     34  H   ASG d 219      26.939 -22.307  93.266  0.00  0.00     0.209 HD
ATOM     35  O5  ASG d 217      23.207 -12.709  99.318  0.00  0.00    -0.349 OA
ATOM     36  C3  ASG d 217      24.560 -14.596  97.589  0.00  0.00     0.185 C 
ATOM     37  O7  ASG d 217      26.707 -15.617 100.780  0.00  0.00    -0.274 OA
ATOM     38  C5  ASG d 217      22.607 -13.114  98.028  0.00  0.00     0.181 C 
ATOM     39  C6  ASG d 217      21.060 -12.845  97.949  0.00  0.00     0.199 C 
ATOM     40  C7  ASG d 217      27.352 -15.000 100.006  0.00  0.00     0.214 C 
ATOM     41  C8  ASG d 217      28.884 -15.152 100.003  0.00  0.00     0.117 C 
ATOM     42  O4  ASG d 217      22.622 -15.433  98.830  0.00  0.00    -0.246 OA
ATOM     43  O6  ASG d 217      20.623 -11.581  97.469  0.00  0.00    -0.398 OA
ATOM     44  C1  ASG d 217      24.704 -12.748  99.325  0.00  0.00     0.286 C 
ATOM     45  C2  ASG d 217      25.230 -14.152  98.883  0.00  0.00     0.171 C 
ATOM     46  OSA ASG d 217      21.959 -17.219  97.147  0.00  0.00    -0.572 OA
ATOM     47  S   ASG d 217      21.684 -16.744  98.503  0.00  0.00     0.252 S 
ATOM     48  N   ASG d 217      26.697 -14.266  98.928  0.00  0.00    -0.349 N 
ATOM     49  OSC ASG d 217      22.039 -17.794  99.449  0.00  0.00    -0.572 OA
ATOM     50  O1  ASG d 217      25.299 -12.257 100.515  0.00  0.00    -0.348 OA
ATOM     51  OSB ASG d 217      20.283 -16.366  98.643  0.00  0.00    -0.572 OA
ATOM     52  C4  ASG d 217      23.044 -14.589  97.772  0.00  0.00     0.207 C 
ATOM     53  H   ASG d 217      20.908 -10.886  98.083  0.00  0.00     0.209 HD
ATOM     54  H   ASG d 217      27.241 -13.843  98.225  0.00  0.00     0.163 HD
ATOM     55  C7  ASG d 221      25.591 -18.088  80.557  0.00  0.00     0.214 C 
ATOM     56  C8  ASG d 221      24.957 -19.483  80.693  0.00  0.00     0.117 C 
ATOM     57  C5  ASG d 221      29.678 -14.964  80.793  0.00  0.00     0.178 C 
ATOM     58  O6  ASG d 221      31.960 -13.906  81.323  0.00  0.00    -0.398 OA
ATOM     59  O1  ASG d 221      27.899 -16.146  83.912  0.00  0.00    -0.348 OA
ATOM     60  OSC ASG d 221      28.779 -11.860  79.402  0.00  0.00    -0.572 OA
ATOM     61  C6  ASG d 221      30.849 -13.975  80.441  0.00  0.00     0.198 C 
ATOM     62  C3  ASG d 221      27.740 -16.154  80.097  0.00  0.00     0.066 C 
ATOM     63  C1  ASG d 221      28.358 -16.184  82.564  0.00  0.00     0.283 C 
ATOM     64  C4  ASG d 221      28.360 -14.783  79.993  0.00  0.00     0.178 C 
ATOM     65  S   ASG d 221      27.979 -12.200  80.579  0.00  0.00     0.252 S 
ATOM     66  C2  ASG d 221      27.215 -16.346  81.504  0.00  0.00     0.142 C 
ATOM     67  N   ASG d 221      26.401 -17.565  81.657  0.00  0.00    -0.352 N 
ATOM     68  O7  ASG d 221      25.273 -17.392  79.655  0.00  0.00    -0.274 OA
ATOM     69  OSB ASG d 221      26.810 -11.327  80.646  0.00  0.00    -0.572 OA
ATOM     70  OSA ASG d 221      28.776 -12.002  81.788  0.00  0.00    -0.572 OA
ATOM     71  O5  ASG d 221      29.302 -15.067  82.220  0.00  0.00    -0.349 OA
ATOM     72  O4  ASG d 221      27.490 -13.778  80.489  0.00  0.00    -0.249 OA
ATOM     73  H   ASG d 221      32.601 -13.261  80.986  0.00  0.00     0.209 HD
ATOM     74  H   ASG d 221      26.402 -18.039  82.520  0.00  0.00     0.163 HD
ATOM     75  O1  BDP d 216      25.927  -7.244 102.597  0.00  0.00    -0.368 OA
ATOM     76  O5  BDP d 216      26.455  -8.842 100.995  0.00  0.00    -0.340 OA
ATOM     77  O2  BDP d 216      23.851  -8.872 103.502  0.00  0.00    -0.388 OA
ATOM     78  C5  BDP d 216      26.573 -10.220 100.695  0.00  0.00     0.257 C 
ATOM     79  C3  BDP d 216      24.386 -10.585 101.899  0.00  0.00     0.183 C 
ATOM     80  C2  BDP d 216      24.440  -9.098 102.242  0.00  0.00     0.204 C 
ATOM     81  C1  BDP d 216      25.885  -8.618 102.267  0.00  0.00     0.289 C 
ATOM     82  C6  BDP d 216      27.301 -10.377  99.363  0.00  0.00     0.206 C 
ATOM     83  O3  BDP d 216      23.044 -10.982 101.708  0.00  0.00    -0.390 OA
ATOM     84  C4  BDP d 216      25.195 -10.883 100.638  0.00  0.00     0.195 C 
ATOM     85  O6B BDP d 216      26.698 -10.050  98.318  0.00  0.00    -0.646 OA
ATOM     86  O6A BDP d 216      28.468 -10.822  99.381  0.00  0.00    -0.646 OA
ATOM     87  H   BDP d 216      26.849  -6.943 102.612  0.00  0.00     0.212 HD
ATOM     88  H   BDP d 216      22.930  -9.177 103.488  0.00  0.00     0.210 HD
ATOM     89  H   BDP d 216      22.661 -10.482 100.970  0.00  0.00     0.210 HD
ATOM     90  O5  BDP d 220      28.143 -18.468  86.564  0.00  0.00    -0.340 OA
ATOM     91  C4  BDP d 220      28.635 -16.948  84.772  0.00  0.00     0.195 C 
ATOM     92  O1  BDP d 220      29.192 -18.468  88.642  0.00  0.00    -0.348 OA
ATOM     93  C6  BDP d 220      26.688 -18.552  84.638  0.00  0.00     0.206 C 
ATOM     94  C2  BDP d 220      29.801 -16.814  87.013  0.00  0.00     0.204 C 
ATOM     95  C5  BDP d 220      27.548 -17.682  85.551  0.00  0.00     0.257 C 
ATOM     96  O2  BDP d 220      30.251 -15.913  88.001  0.00  0.00    -0.388 OA
ATOM     97  O3  BDP d 220      30.564 -15.551  85.105  0.00  0.00    -0.390 OA
ATOM     98  C1  BDP d 220      28.673 -17.662  87.594  0.00  0.00     0.292 C 
ATOM     99  C3  BDP d 220      29.402 -16.050  85.744  0.00  0.00     0.183 C 
ATOM    100  O6B BDP d 220      27.229 -19.530  84.068  0.00  0.00    -0.646 OA
ATOM    101  O6A BDP d 220      25.480 -18.238  84.505  0.00  0.00    -0.646 OA
ATOM    102  H   BDP d 220      29.527 -15.318  88.250  0.00  0.00     0.210 HD
ATOM    103  H   BDP d 220      30.310 -15.068  84.303  0.00  0.00     0.210 HD
ENDROOT
TORSDOF 35
