REMARK WARNING: 32 MAX_TORS EXCEEDED!!!
REMARK  392 active torsions:
REMARK  status: ('A' for Active; 'I' for Inactive)
REMARK    1  A    between atoms: O4_25  and  C4_404 
REMARK    2  A    between atoms: O4_26  and  O4_41 
REMARK    3  A    between atoms: O4_27  and  O4_37 
REMARK    4  A    between atoms: O4_27  and  O4_34 
REMARK    5  A    between atoms: O4_30  and  O4_31 
REMARK    6  A    between atoms: O4_30  and  O4_42 
REMARK    7  A    between atoms: O4_31  and  O4_38 
REMARK    8  A    between atoms: O4_32  and  C4_405 
REMARK    9  A    between atoms: O4_32  and  O4_34 
REMARK   10  A    between atoms: O4_33  and  O4_37 
REMARK   11  A    between atoms: C2_50  and  C2_52 
REMARK   12  A    between atoms: C2_56  and  C1_737 
REMARK   13  A    between atoms: C2_63  and  C1_737 
REMARK   14  A    between atoms: O4_65  and  C4_862 
REMARK   15  A    between atoms: O4_65  and  C1_424 
REMARK   16  A    between atoms: O4_66  and  O4_69 
REMARK   17  A    between atoms: O4_69  and  O4_77 
REMARK   18  A    between atoms: O4_70  and  O4_81 
REMARK   19  A    between atoms: O4_73  and  O4_75 
REMARK   20  A    between atoms: O4_74  and  O4_75 
REMARK   21  A    between atoms: O4_80  and  C4_874 
REMARK   22  A    between atoms: O4_81  and  O4_82 
REMARK   23  A    between atoms: O4_82  and  C4_876 
REMARK   24  A    between atoms: O2S_85  and  S_1112 
REMARK   25  A    between atoms: O2S_85  and  S_1127 
REMARK   26  A    between atoms: O2S_87  and  O1S_1367 
REMARK   27  A    between atoms: O2S_94  and  S_1119 
REMARK   28  A    between atoms: O2S_99  and  S_1127 
REMARK   29  A    between atoms: O2S_99  and  S_1128 
REMARK   30  A    between atoms: O2S_101  and  S_1121 
REMARK   31  A    between atoms: O6S_108  and  O6_589 
REMARK   32  A    between atoms: O6S_108  and  O6S_111 
REMARK   33  A    between atoms: O6S_112  and  O6S_118 
REMARK   34  A    between atoms: O6S_112  and  O6_588 
REMARK   35  A    between atoms: O6S_118  and  S2_885 
REMARK   36  A    between atoms: O6S_121  and  O4S_776 
REMARK   37  A    between atoms: O6S_121  and  O5S_664 
REMARK   38  A    between atoms: O6S_122  and  O4S_776 
REMARK   39  A    between atoms: N9_125  and  S19_590 
REMARK   40  A    between atoms: N9_125  and  C29_515 
REMARK   41  A    between atoms: N9_126  and  N9_142 
REMARK   42  A    between atoms: N9_127  and  N9_130 
REMARK   43  A    between atoms: N9_127  and  N9_137 
REMARK   44  A    between atoms: N9_128  and  N9_132 
REMARK   45  A    between atoms: N9_128  and  N9_134 
REMARK   46  A    between atoms: N9_129  and  N9_141 
REMARK   47  A    between atoms: N9_129  and  N9_144 
REMARK   48  A    between atoms: N9_130  and  N9_134 
REMARK   49  A    between atoms: N9_131  and  N9_134 
REMARK   50  A    between atoms: N9_132  and  N9_144 
REMARK   51  A    between atoms: N9_133  and  N9_143 
REMARK   52  A    between atoms: O1S_209  and  S1_1610 
REMARK   53  A    between atoms: O1S_209  and  O2S_1349 
REMARK   54  A    between atoms: O1S_222  and  O1S_223 
REMARK   55  A    between atoms: O1S_223  and  O1S_225 
REMARK   56  A    between atoms: O1S_225  and  O1S_227 
REMARK   57  A    between atoms: O1S_226  and  O1S_228 
REMARK   58  A    between atoms: O1S_227  and  O2S_1349 
REMARK   59  A    between atoms: O1S_228  and  O3S_1604 
REMARK   60  A    between atoms: O4S_264  and  O4S_269 
REMARK   61  A    between atoms: O4S_264  and  O4S_271 
REMARK   62  A    between atoms: O4S_273  and  O4S_278 
REMARK   63  A    between atoms: C6_280  and  C5_367 
REMARK   64  A    between atoms: C6_280  and  O61_300 
REMARK   65  A    between atoms: C6_280  and  O62_1012 
REMARK   66  A    between atoms: C6_290  and  O61_307 
REMARK   67  A    between atoms: C6_297  and  O62_1017 
REMARK   68  A    between atoms: O61_300  and  O61_314 
REMARK   69  A    between atoms: O61_303  and  O61_310 
REMARK   70  A    between atoms: O61_304  and  O61_306 
REMARK   71  A    between atoms: O61_305  and  O61_309 
REMARK   72  A    between atoms: O61_306  and  O61_307 
REMARK   73  A    between atoms: O61_308  and  O61_316 
REMARK   74  A    between atoms: O61_309  and  O61_310 
REMARK   75  A    between atoms: O61_316  and  O62_1015 
REMARK   76  A    between atoms: O61_318  and  O62_1015 
REMARK   77  A    between atoms: O61_318  and  O61_319 
REMARK   78  A    between atoms: O61_319  and  O62_1025 
REMARK   79  A    between atoms: C19_320  and  O2_922 
REMARK   80  A    between atoms: C19_321  and  C19_326 
REMARK   81  A    between atoms: C19_324  and  C19_326 
REMARK   82  A    between atoms: C19_324  and  C19_334 
REMARK   83  A    between atoms: C19_333  and  C19_338 
REMARK   84  A    between atoms: C19_337  and  C19_338 
REMARK   85  A    between atoms: C19_337  and  C19_339 
REMARK   86  A    between atoms: C5_371  and  C5_378 
REMARK   87  A    between atoms: C5_383  and  C5_384 
REMARK   88  A    between atoms: C5_383  and  C5_386 
REMARK   89  A    between atoms: C5_386  and  O5_489 
REMARK   90  A    between atoms: C4_405  and  C4_421 
REMARK   91  A    between atoms: C4_408  and  C4_416 
REMARK   92  A    between atoms: C4_408  and  C4_412 
REMARK   93  A    between atoms: C4_409  and  C4_421 
REMARK   94  A    between atoms: C4_412  and  C4_415 
REMARK   95  A    between atoms: C1_425  and  C1_428 
REMARK   96  A    between atoms: C1_429  and  C1_436 
REMARK   97  A    between atoms: C1_429  and  C1_440 
REMARK   98  A    between atoms: C1_433  and  C1_436 
REMARK   99  A    between atoms: O5_476  and  O5_479 
REMARK  100  A    between atoms: O5_477  and  C1_796 
REMARK  101  A    between atoms: O5_479  and  O5_491 
REMARK  102  A    between atoms: O5_482  and  C1_796 
REMARK  103  A    between atoms: O5_485  and  O5_487 
REMARK  104  A    between atoms: O5_487  and  O5_492 
REMARK  105  A    between atoms: O5_489  and  O5_493 
REMARK  106  A    between atoms: O5_491  and  O5_494 
REMARK  107  A    between atoms: O69_495  and  S29_1547 
REMARK  108  A    between atoms: O69_495  and  C69_1310 
REMARK  109  A    between atoms: O69_497  and  O6S_553 
REMARK  110  A    between atoms: O69_497  and  O69_505 
REMARK  111  A    between atoms: O69_499  and  O69_504 
REMARK  112  A    between atoms: O69_499  and  O69_511 
REMARK  113  A    between atoms: O69_500  and  O69_502 
REMARK  114  A    between atoms: O69_502  and  O69_510 
REMARK  115  A    between atoms: O69_503  and  O69_508 
REMARK  116  A    between atoms: O69_504  and  O69_510 
REMARK  117  A    between atoms: O69_506  and  O69_509 
REMARK  118  A    between atoms: O69_507  and  O69_511 
REMARK  119  A    between atoms: O69_508  and  C69_1317 
REMARK  120  A    between atoms: O69_509  and  C69_1325 
REMARK  121  A    between atoms: O69_512  and  O69_513 
REMARK  122  A    between atoms: C29_518  and  C29_521 
REMARK  123  A    between atoms: O6S_535  and  S29_1547 
REMARK  124  A    between atoms: O6S_535  and  O6S_538 
REMARK  125  A    between atoms: O6S_536  and  O6S_549 
REMARK  126  A    between atoms: O6S_536  and  O6S_540 
REMARK  127  A    between atoms: O6S_541  and  O6S_550 
REMARK  128  A    between atoms: O6S_549  and  S29_1562 
REMARK  129  A    between atoms: O6S_553  and  S29_1557 
REMARK  130  A    between atoms: O6_570  and  C6_1032 
REMARK  131  A    between atoms: O6_570  and  S2_882 
REMARK  132  A    between atoms: O6_572  and  C6_1047 
REMARK  133  A    between atoms: O6_577  and  C6_1047 
REMARK  134  A    between atoms: O6_578  and  C6_1048 
REMARK  135  A    between atoms: O6_578  and  O6_580 
REMARK  136  A    between atoms: O6_579  and  O6_580 
REMARK  137  A    between atoms: O6_579  and  O6_584 
REMARK  138  A    between atoms: O6_581  and  O6_582 
REMARK  139  A    between atoms: O6_582  and  O6_583 
REMARK  140  A    between atoms: O6_585  and  O6_586 
REMARK  141  A    between atoms: O6_585  and  S2_889 
REMARK  142  A    between atoms: O6_588  and  O6_589 
REMARK  143  A    between atoms: S19_593  and  S19_606 
REMARK  144  A    between atoms: S19_594  and  S19_609 
REMARK  145  A    between atoms: S19_594  and  S19_598 
REMARK  146  A    between atoms: S19_596  and  S19_606 
REMARK  147  A    between atoms: S19_603  and  S19_608 
REMARK  148  A    between atoms: S19_607  and  O2S_1185 
REMARK  149  A    between atoms: S19_607  and  S19_608 
REMARK  150  A    between atoms: S19_609  and  O2S_1181 
REMARK  151  A    between atoms: C5_610  and  C6_1032 
REMARK  152  A    between atoms: C5_615  and  C5_619 
REMARK  153  A    between atoms: C5_616  and  O5_1230 
REMARK  154  A    between atoms: C5_619  and  C5_620 
REMARK  155  A    between atoms: O59_633  and  O59_642 
REMARK  156  A    between atoms: O59_633  and  O59_644 
REMARK  157  A    between atoms: O59_636  and  O59_641 
REMARK  158  A    between atoms: O59_638  and  O59_648 
REMARK  159  A    between atoms: O59_640  and  O59_649 
REMARK  160  A    between atoms: O59_643  and  O59_646 
REMARK  161  A    between atoms: O59_644  and  O59_648 
REMARK  162  A    between atoms: O59_645  and  O59_649 
REMARK  163  A    between atoms: O59_646  and  O59_647 
REMARK  164  A    between atoms: O5S_664  and  S2_882 
REMARK  165  A    between atoms: O5S_667  and  O5S_674 
REMARK  166  A    between atoms: O5S_671  and  S2_894 
REMARK  167  A    between atoms: O5S_672  and  S2_896 
REMARK  168  A    between atoms: O5S_672  and  O5S_673 
REMARK  169  A    between atoms: O5S_673  and  O5S_674 
REMARK  170  A    between atoms: C3_702  and  O3_972 
REMARK  171  A    between atoms: C3_704  and  C3_707 
REMARK  172  A    between atoms: C3_707  and  C3_708 
REMARK  173  A    between atoms: C3_707  and  C3_719 
REMARK  174  A    between atoms: C3_708  and  C3_712 
REMARK  175  A    between atoms: C3_720  and  O3_989 
REMARK  176  A    between atoms: C3_720  and  O3_987 
REMARK  177  A    between atoms: C1_722  and  O2_922 
REMARK  178  A    between atoms: C1_730  and  C1_740 
REMARK  179  A    between atoms: C1_733  and  C1_734 
REMARK  180  A    between atoms: C1_734  and  O2_937 
REMARK  181  A    between atoms: O3S_747  and  O3S_751 
REMARK  182  A    between atoms: O4S_762  and  S2_882 
REMARK  183  A    between atoms: O4S_762  and  O4S_768 
REMARK  184  A    between atoms: O4S_764  and  S2_899 
REMARK  185  A    between atoms: O4S_780  and  S2_884 
REMARK  186  A    between atoms: O4S_780  and  O4S_781 
REMARK  187  A    between atoms: O4S_781  and  S2_889 
REMARK  188  A    between atoms: C1_782  and  O49_842 
REMARK  189  A    between atoms: C1_783  and  C1_799 
REMARK  190  A    between atoms: C1_783  and  C1_785 
REMARK  191  A    between atoms: C1_785  and  C1_795 
REMARK  192  A    between atoms: C1_787  and  C1_794 
REMARK  193  A    between atoms: C1_794  and  C1_800 
REMARK  194  A    between atoms: O2_802  and  C2_992 
REMARK  195  A    between atoms: O2_802  and  S_1112 
REMARK  196  A    between atoms: O2_805  and  O2_821 
REMARK  197  A    between atoms: O2_807  and  O2_811 
REMARK  198  A    between atoms: O2_811  and  O2_817 
REMARK  199  A    between atoms: O2_820  and  O2_821 
REMARK  200  A    between atoms: O49_842  and  C49_1192 
REMARK  201  A    between atoms: O49_843  and  O49_857 
REMARK  202  A    between atoms: O49_843  and  O49_845 
REMARK  203  A    between atoms: O49_844  and  O49_845 
REMARK  204  A    between atoms: O49_846  and  O49_859 
REMARK  205  A    between atoms: O49_847  and  O49_849 
REMARK  206  A    between atoms: O49_847  and  O49_851 
REMARK  207  A    between atoms: O49_850  and  O49_861 
REMARK  208  A    between atoms: O49_851  and  O49_852 
REMARK  209  A    between atoms: O49_853  and  O49_858 
REMARK  210  A    between atoms: O49_853  and  O49_855 
REMARK  211  A    between atoms: O49_859  and  O49_861 
REMARK  212  A    between atoms: C4_863  and  C4_879 
REMARK  213  A    between atoms: C4_864  and  C4_868 
REMARK  214  A    between atoms: C4_866  and  C4_867 
REMARK  215  A    between atoms: C4_866  and  C4_878 
REMARK  216  A    between atoms: C4_867  and  C4_874 
REMARK  217  A    between atoms: C4_869  and  C3_1169 
REMARK  218  A    between atoms: C4_869  and  C4_872 
REMARK  219  A    between atoms: C4_870  and  C4_872 
REMARK  220  A    between atoms: C4_876  and  C4_880 
REMARK  221  A    between atoms: C4_878  and  C4_879 
REMARK  222  A    between atoms: S2_884  and  S2_897 
REMARK  223  A    between atoms: S2_890  and  S2_895 
REMARK  224  A    between atoms: S2_894  and  S2_895 
REMARK  225  A    between atoms: S2_899  and  S2_897 
REMARK  226  A    between atoms: N_902  and  C2_1092 
REMARK  227  A    between atoms: N_902  and  S1_1610 
REMARK  228  A    between atoms: N_903  and  N_905 
REMARK  229  A    between atoms: N_904  and  N_911 
REMARK  230  A    between atoms: N_904  and  N_907 
REMARK  231  A    between atoms: N_905  and  N_906 
REMARK  232  A    between atoms: N_906  and  N_912 
REMARK  233  A    between atoms: N_907  and  N_920 
REMARK  234  A    between atoms: N_909  and  N_914 
REMARK  235  A    between atoms: N_909  and  N_910 
REMARK  236  A    between atoms: N_912  and  N_916 
REMARK  237  A    between atoms: N_912  and  N_921 
REMARK  238  A    between atoms: N_914  and  N_915 
REMARK  239  A    between atoms: N_918  and  C2_1100 
REMARK  240  A    between atoms: N_918  and  N_921 
REMARK  241  A    between atoms: N_919  and  N_920 
REMARK  242  A    between atoms: O2_924  and  O2_927 
REMARK  243  A    between atoms: O2_924  and  O2_926 
REMARK  244  A    between atoms: O2_925  and  O2_930 
REMARK  245  A    between atoms: O2_925  and  O2_931 
REMARK  246  A    between atoms: O2_926  and  O2_941 
REMARK  247  A    between atoms: O2_930  and  O2_934 
REMARK  248  A    between atoms: O2_933  and  O2_940 
REMARK  249  A    between atoms: O2_933  and  O2_941 
REMARK  250  A    between atoms: O3_976  and  O3_979 
REMARK  251  A    between atoms: O3_979  and  O3_980 
REMARK  252  A    between atoms: O3_984  and  O3_991 
REMARK  253  A    between atoms: O3_985  and  O3_990 
REMARK  254  A    between atoms: O3_988  and  O3_989 
REMARK  255  A    between atoms: C2_996  and  C2_1003 
REMARK  256  A    between atoms: C2_997  and  C2_1008 
REMARK  257  A    between atoms: C2_1003  and  C2_1005 
REMARK  258  A    between atoms: C2_1004  and  C3_1167 
REMARK  259  A    between atoms: C2_1005  and  C2_1009 
REMARK  260  A    between atoms: C2_1005  and  C3_1167 
REMARK  261  A    between atoms: C2_1006  and  C3_1167 
REMARK  262  A    between atoms: C2_1006  and  C2_1010 
REMARK  263  A    between atoms: O62_1012  and  O62_1020 
REMARK  264  A    between atoms: O62_1013  and  O62_1017 
REMARK  265  A    between atoms: O62_1013  and  O62_1014 
REMARK  266  A    between atoms: O62_1014  and  O62_1019 
REMARK  267  A    between atoms: O62_1016  and  O62_1023 
REMARK  268  A    between atoms: O62_1018  and  O62_1021 
REMARK  269  A    between atoms: O62_1018  and  O62_1024 
REMARK  270  A    between atoms: O62_1020  and  O62_1023 
REMARK  271  A    between atoms: O62_1022  and  O62_1025 
REMARK  272  A    between atoms: O62_1024  and  O62_1028 
REMARK  273  A    between atoms: O62_1027  and  O62_1029 
REMARK  274  A    between atoms: O62_1027  and  O62_1031 
REMARK  275  A    between atoms: O62_1028  and  O62_1030 
REMARK  276  A    between atoms: O62_1030  and  O62_1031 
REMARK  277  A    between atoms: C6_1037  and  C6_1038 
REMARK  278  A    between atoms: C6_1037  and  C6_1048 
REMARK  279  A    between atoms: C6_1038  and  C6_1041 
REMARK  280  A    between atoms: C6_1038  and  C6_1049 
REMARK  281  A    between atoms: C6_1039  and  C6_1042 
REMARK  282  A    between atoms: C6_1039  and  C6_1041 
REMARK  283  A    between atoms: C6_1042  and  C6_1047 
REMARK  284  A    between atoms: O1S_1055  and  O1S_1066 
REMARK  285  A    between atoms: O1S_1056  and  O1S_1070 
REMARK  286  A    between atoms: O1S_1056  and  O1S_1060 
REMARK  287  A    between atoms: O1S_1060  and  O1S_1064 
REMARK  288  A    between atoms: O1S_1065  and  O1S_1066 
REMARK  289  A    between atoms: C2_1095  and  C2_1096 
REMARK  290  A    between atoms: C2_1095  and  C2_1109 
REMARK  291  A    between atoms: C2_1097  and  C2_1109 
REMARK  292  A    between atoms: C2_1106  and  C2_1111 
REMARK  293  A    between atoms: C2_1108  and  C2_1111 
REMARK  294  A    between atoms: S_1112  and  S_1131 
REMARK  295  A    between atoms: S_1114  and  O1S_1351 
REMARK  296  A    between atoms: S_1125  and  S_1129 
REMARK  297  A    between atoms: S_1125  and  S_1131 
REMARK  298  A    between atoms: S_1128  and  S_1130 
REMARK  299  A    between atoms: C39_1132  and  O39_1290 
REMARK  300  A    between atoms: C39_1144  and  C39_1151 
REMARK  301  A    between atoms: C39_1148  and  C39_1149 
REMARK  302  A    between atoms: C39_1149  and  C39_1151 
REMARK  303  A    between atoms: C3_1152  and  O3_1459 
REMARK  304  A    between atoms: C3_1153  and  C3_1165 
REMARK  305  A    between atoms: C3_1153  and  C3_1160 
REMARK  306  A    between atoms: C3_1154  and  O3_1475 
REMARK  307  A    between atoms: C3_1154  and  C3_1155 
REMARK  308  A    between atoms: C3_1154  and  C3_1156 
REMARK  309  A    between atoms: C3_1155  and  C3_1169 
REMARK  310  A    between atoms: C3_1156  and  C3_1163 
REMARK  311  A    between atoms: C3_1160  and  C3_1168 
REMARK  312  A    between atoms: C3_1161  and  C3_1162 
REMARK  313  A    between atoms: C3_1162  and  C3_1168 
REMARK  314  A    between atoms: C3_1163  and  C3_1165 
REMARK  315  A    between atoms: O2S_1174  and  O2S_1183 
REMARK  316  A    between atoms: O2S_1179  and  O2S_1180 
REMARK  317  A    between atoms: O2S_1181  and  O2S_1185 
REMARK  318  A    between atoms: C49_1196  and  C49_1197 
REMARK  319  A    between atoms: C49_1196  and  C49_1200 
REMARK  320  A    between atoms: C49_1197  and  C49_1199 
REMARK  321  A    between atoms: C49_1200  and  C49_1204 
REMARK  322  A    between atoms: C49_1204  and  C49_1206 
REMARK  323  A    between atoms: C49_1206  and  C49_1208 
REMARK  324  A    between atoms: C49_1208  and  C49_1210 
REMARK  325  A    between atoms: O5_1213  and  O5_1223 
REMARK  326  A    between atoms: O5_1213  and  O5_1216 
REMARK  327  A    between atoms: O5_1216  and  O5_1224 
REMARK  328  A    between atoms: O5_1217  and  O5_1229 
REMARK  329  A    between atoms: O5_1218  and  O5_1221 
REMARK  330  A    between atoms: O5_1218  and  O5_1223 
REMARK  331  A    between atoms: O5_1219  and  O5_1221 
REMARK  332  A    between atoms: O5_1227  and  O5_1229 
REMARK  333  A    between atoms: C59_1232  and  C69_1310 
REMARK  334  A    between atoms: C59_1237  and  C59_1244 
REMARK  335  A    between atoms: O39_1291  and  O39_1301 
REMARK  336  A    between atoms: O39_1292  and  O39_1297 
REMARK  337  A    between atoms: O39_1293  and  O39_1302 
REMARK  338  A    between atoms: O39_1294  and  O39_1295 
REMARK  339  A    between atoms: O39_1295  and  O39_1307 
REMARK  340  A    between atoms: O39_1296  and  O39_1299 
REMARK  341  A    between atoms: O39_1298  and  O39_1303 
REMARK  342  A    between atoms: O39_1299  and  O39_1306 
REMARK  343  A    between atoms: O39_1300  and  O39_1302 
REMARK  344  A    between atoms: O39_1300  and  O39_1304 
REMARK  345  A    between atoms: O39_1301  and  O39_1303 
REMARK  346  A    between atoms: O39_1308  and  O39_1309 
REMARK  347  A    between atoms: C69_1314  and  C69_1321 
REMARK  348  A    between atoms: C69_1314  and  C69_1320 
REMARK  349  A    between atoms: C69_1314  and  C69_1316 
REMARK  350  A    between atoms: C69_1320  and  C69_1325 
REMARK  351  A    between atoms: O2S_1335  and  O2S_1339 
REMARK  352  A    between atoms: O2S_1335  and  O2S_1348 
REMARK  353  A    between atoms: O2S_1340  and  O2S_1344 
REMARK  354  A    between atoms: O1S_1353  and  O1S_1368 
REMARK  355  A    between atoms: O1S_1353  and  O1S_1363 
REMARK  356  A    between atoms: O1S_1362  and  O1S_1366 
REMARK  357  A    between atoms: O1S_1363  and  O1S_1366 
REMARK  358  A    between atoms: O1S_1368  and  O1S_1369 
REMARK  359  A    between atoms: O5S_1406  and  S29_1547 
REMARK  360  A    between atoms: O5S_1406  and  O5S_1422 
REMARK  361  A    between atoms: O5S_1412  and  O5S_1418 
REMARK  362  A    between atoms: O5S_1418  and  O5S_1421 
REMARK  363  A    between atoms: O5S_1424  and  S29_1562 
REMARK  364  A    between atoms: O3_1460  and  O3_1462 
REMARK  365  A    between atoms: O3_1462  and  O3_1476 
REMARK  366  A    between atoms: O3_1463  and  O3_1467 
REMARK  367  A    between atoms: O3_1466  and  O3_1468 
REMARK  368  A    between atoms: O3_1467  and  O3_1477 
REMARK  369  A    between atoms: O3_1469  and  O3_1474 
REMARK  370  A    between atoms: O3_1470  and  O3_1475 
REMARK  371  A    between atoms: O3_1471  and  O3_1474 
REMARK  372  A    between atoms: O3_1473  and  O3_1477 
REMARK  373  A    between atoms: O3_1473  and  O3_1478 
REMARK  374  A    between atoms: O3S_1528  and  O3S_1545 
REMARK  375  A    between atoms: O3S_1529  and  O3S_1533 
REMARK  376  A    between atoms: O3S_1529  and  O3S_1530 
REMARK  377  A    between atoms: O3S_1530  and  O3S_1544 
REMARK  378  A    between atoms: O3S_1533  and  O3S_1537 
REMARK  379  A    between atoms: O3S_1535  and  O3S_1540 
REMARK  380  A    between atoms: O3S_1538  and  O3S_1540 
REMARK  381  A    between atoms: O3S_1544  and  O3S_1545 
REMARK  382  A    between atoms: S29_1547  and  S29_1561 
REMARK  383  A    between atoms: S29_1550  and  S29_1553 
REMARK  384  A    between atoms: S29_1551  and  S29_1558 
REMARK  385  A    between atoms: S29_1558  and  S29_1565 
REMARK  386  A    between atoms: S29_1560  and  S29_1565 
REMARK  387  A    between atoms: S29_1560  and  S29_1561 
REMARK  388  A    between atoms: O3S_1590  and  S1_1610 
REMARK  389  A    between atoms: O3S_1601  and  O3S_1604 
REMARK  390  A    between atoms: S1_1612  and  S1_1614 
REMARK  391  A    between atoms: S1_1613  and  S1_1614 
REMARK  392  A    between atoms: S1_1613  and  S1_1623 
ROOT
ATOM      1  O4  SGN d 203     -33.807  39.040  38.570  0.00  0.00    -0.411 OA
ATOM      2  H   SGN d 203     -32.837  39.040  38.570  0.00  0.00     0.205 HD
ATOM      3  H   SGN d 203     -34.130  39.697  37.934  0.00  0.00     0.205 HD
ENDROOT
TORSDOF 392
