REMARK  11 active torsions:
REMARK  status: ('A' for Active; 'I' for Inactive)
REMARK    1  A    between atoms: CCA_2  and  OCB_28 
REMARK    2  A    between atoms: OBM_4  and  CBE_20 
REMARK    3  A    between atoms: CBI_5  and  CBJ_25 
REMARK    4  A    between atoms: CBY_7  and  OBZ_22 
REMARK    5  A    between atoms: SBW_8  and  OBP_27 
REMARK    6  A    between atoms: OBR_9  and  CBJ_25 
REMARK    7  A    between atoms: CCD_10  and  CCE_18 
REMARK    8  A    between atoms: OBO_12  and  CBG_29 
REMARK    9  A    between atoms: OBO_12  and  CBX_17 
REMARK   10  A    between atoms: CBH_23  and  OBP_27 
REMARK       I    between atoms: CBK_24  and  NBN_30 
REMARK   11  A    between atoms: CBF_26  and  NBN_30 
ROOT
ATOM      1  CBI L42 d1784      30.282  21.979  31.853  0.00  0.00     0.181 C 
ATOM      2  OBQ L42 d1784      31.663  21.606  31.527  0.00  0.00    -0.349 OA
ATOM      3  CBE L42 d1784      31.711  20.851  30.217  0.00  0.00     0.282 C 
ATOM      4  CBH L42 d1784      29.403  20.732  32.039  0.00  0.00     0.207 C 
ATOM      5  CBF L42 d1784      30.783  19.608  30.261  0.00  0.00     0.171 C 
ATOM      6  CBG L42 d1784      29.353  20.074  30.697  0.00  0.00     0.185 C 
ENDROOT
BRANCH   6   7
ATOM      7  OBO L42 d1784      28.354  19.119  30.851  0.00  0.00    -0.348 OA
BRANCH   7   8
ATOM      8  CBX L42 d1784      27.414  19.177  29.826  0.00  0.00     0.298 C 
ATOM      9  CBY L42 d1784      26.583  17.865  29.769  0.00  0.00     0.206 C 
ATOM     10  CCA L42 d1784      25.639  17.939  28.594  0.00  0.00     0.177 C 
ATOM     11  CCC L42 d1784      24.982  19.334  28.566  0.00  0.00     0.051 C 
ATOM     12  CCD L42 d1784      25.480  20.389  29.348  0.00  0.00     0.147 C 
ATOM     13  OCH L42 d1784      26.533  20.239  30.190  0.00  0.00    -0.311 OA
BRANCH   9  14
ATOM     14  OBZ L42 d1784      27.373  16.703  29.641  0.00  0.00    -0.388 OA
ATOM     15  H   L42 d1784      27.865  16.737  28.806  0.00  0.00     0.210 HD
ENDBRANCH   9  14
BRANCH  10  16
ATOM     16  OCB L42 d1784      24.643  16.967  28.839  0.00  0.00    -0.389 OA
ATOM     17  H   L42 d1784      24.212  17.153  29.688  0.00  0.00     0.210 HD
ENDBRANCH  10  16
BRANCH  12  18
ATOM     18  CCE L42 d1784      24.881  21.789  29.307  0.00  0.00     0.233 C 
ATOM     19  OCG L42 d1784      25.340  22.582  30.175  0.00  0.00    -0.642 OA
ATOM     20  OCF L42 d1784      23.943  22.034  28.507  0.00  0.00    -0.642 OA
ENDBRANCH  12  18
ENDBRANCH   7   8
ENDBRANCH   6   7
BRANCH   4  21
ATOM     21  OBP L42 d1784      29.951  19.899  33.119  0.00  0.00    -0.246 OA
BRANCH  21  22
ATOM     22  SBW L42 d1784      29.003  19.620  34.248  0.00  0.00     0.252 S 
ATOM     23  OBU L42 d1784      27.643  19.110  33.770  0.00  0.00    -0.572 OA
ATOM     24  OBV L42 d1784      29.708  18.677  35.071  0.00  0.00    -0.572 OA
ATOM     25  OBT L42 d1784      28.753  20.825  35.073  0.00  0.00    -0.572 OA
ENDBRANCH  21  22
ENDBRANCH   4  21
BRANCH   5  26
ATOM     26  NBN L42 d1784      30.528  18.950  28.988  0.00  0.00    -0.349 N 
ATOM     27  CBK L42 d1784      30.593  17.614  28.854  0.00  0.00     0.214 C 
ATOM     28  OBS L42 d1784      31.038  16.825  29.703  0.00  0.00    -0.274 OA
ATOM     29  CBL L42 d1784      30.107  17.097  27.506  0.00  0.00     0.117 C 
ATOM     30  H   L42 d1784      30.302  19.499  28.203  0.00  0.00     0.163 HD
ENDBRANCH   5  26
BRANCH   1  31
ATOM     31  CBJ L42 d1784      29.873  22.856  33.119  0.00  0.00     0.199 C 
BRANCH  31  32
ATOM     32  OBR L42 d1784      31.078  22.996  33.620  0.00  0.00    -0.398 OA
ATOM     33  H   L42 d1784      31.031  23.526  34.431  0.00  0.00     0.209 HD
ENDBRANCH  31  32
ENDBRANCH   1  31
BRANCH   3  34
ATOM     34  OBM L42 d1784      33.034  20.536  29.831  0.00  0.00    -0.369 OA
ATOM     35  H   L42 d1784      33.569  21.345  29.820  0.00  0.00     0.212 HD
ENDBRANCH   3  34
TORSDOF 11
