REMARK  0 active torsions:
REMARK  status: ('A' for Active; 'I' for Inactive)
REMARK       I    between atoms: O2_1  and  C2_15 
REMARK       I    between atoms: C4_2  and  O4_9 
REMARK       I    between atoms: C2_5  and  N2_37 
REMARK       I    between atoms: O6_6  and  C6_43 
REMARK       I    between atoms: C5_7  and  C6_53 
REMARK       I    between atoms: O2_11  and  C2_33 
REMARK       I    between atoms: O3_12  and  C1_20 
REMARK       I    between atoms: O3_12  and  C3_48 
REMARK       I    between atoms: C3_13  and  O3_24 
REMARK       I    between atoms: O6B_14  and  C6_26 
REMARK       I    between atoms: N2_16  and  C2_44 
REMARK       I    between atoms: N2_16  and  C7_39 
REMARK       I    between atoms: C3_19  and  O3_52 
REMARK       I    between atoms: C4_21  and  O4_40 
REMARK       I    between atoms: O6_23  and  C6_53 
REMARK       I    between atoms: O4_25  and  C4_45 
REMARK       I    between atoms: C6_26  and  C5_34 
REMARK       I    between atoms: O4_28  and  C1_51 
REMARK       I    between atoms: O4_28  and  C4_41 
REMARK       I    between atoms: O3_29  and  C3_35 
REMARK       I    between atoms: C7_30  and  N2_37 
REMARK       I    between atoms: C6_31  and  C5_50 
REMARK       I    between atoms: C6_31  and  O6B_47 
REMARK       I    between atoms: C5_32  and  C6_43 
REMARK       I    between atoms: C1_46  and  O3_52 
ROOT
ATOM      1  O2  GCU d 401       8.947  33.280 -12.333  0.00  0.00    -0.388 OA
ATOM      2  C2  GCU d 401       9.323  32.357 -13.343  0.00  0.00     0.204 C 
ATOM      3  O6A GCU d 401       8.786  28.558 -16.130  0.00  0.00    -0.648 OA
ATOM      4  O5  GCU d 401       8.924  30.235 -14.296  0.00  0.00    -0.340 OA
ATOM      5  O4  GCU d 401       9.028  32.672 -17.010  0.00  0.00    -0.390 OA
ATOM      6  O3  GCU d 401      10.308  34.045 -14.790  0.00  0.00    -0.390 OA
ATOM      7  C6  GCU d 401       8.830  29.723 -16.579  0.00  0.00     0.172 C 
ATOM      8  C3  GCU d 401       9.277  33.050 -14.683  0.00  0.00     0.183 C 
ATOM      9  C4  GCU d 401       9.494  32.050 -15.808  0.00  0.00     0.189 C 
ATOM     10  C1  GCU d 401       8.433  31.116 -13.284  0.00  0.00     0.292 C 
ATOM     11  O6B GCU d 401       8.974  30.229 -17.712  0.00  0.00    -0.774 OA
ATOM     12  C5  GCU d 401       8.647  30.790 -15.569  0.00  0.00     0.253 C 
ATOM     13  H   GCU d 401       8.974  32.842 -11.468  0.00  0.00     0.210 HD
ATOM     14  H   GCU d 401       9.549  33.472 -17.183  0.00  0.00     0.210 HD
ATOM     15  H   GCU d 401      10.198  34.701 -14.084  0.00  0.00     0.210 HD
ATOM     16  H   GCU d 401       8.975  31.161 -17.812  0.00  0.00     0.167 HD
ATOM     17  C4  NAG d 404      -0.386  27.398  -5.126  0.00  0.00     0.180 C 
ATOM     18  O6  NAG d 404      -3.836  25.972  -4.766  0.00  0.00    -0.398 OA
ATOM     19  O5  NAG d 404      -2.358  28.127  -3.988  0.00  0.00    -0.337 OA
ATOM     20  O4  NAG d 404       0.040  26.779  -6.345  0.00  0.00    -0.390 OA
ATOM     21  O7  NAG d 404      -2.436  31.001  -4.597  0.00  0.00    -0.274 OA
ATOM     22  O3  NAG d 404       1.595  28.798  -5.030  0.00  0.00    -0.348 OA
ATOM     23  N2  NAG d 404      -0.378  30.835  -3.614  0.00  0.00    -0.349 N 
ATOM     24  C8  NAG d 404      -1.249  33.028  -4.169  0.00  0.00     0.117 C 
ATOM     25  C1  NAG d 404      -1.394  28.586  -3.092  0.00  0.00     0.283 C 
ATOM     26  C5  NAG d 404      -1.913  27.534  -5.204  0.00  0.00     0.180 C 
ATOM     27  C7  NAG d 404      -1.423  31.537  -4.155  0.00  0.00     0.214 C 
ATOM     28  C6  NAG d 404      -2.628  26.237  -5.496  0.00  0.00     0.198 C 
ATOM     29  C2  NAG d 404      -0.221  29.369  -3.584  0.00  0.00     0.187 C 
ATOM     30  C3  NAG d 404       0.211  28.790  -4.924  0.00  0.00     0.184 C 
ATOM     31  H   NAG d 404      -4.198  25.115  -5.041  0.00  0.00     0.209 HD
ATOM     32  H   NAG d 404      -0.249  27.317  -7.099  0.00  0.00     0.210 HD
ATOM     33  H   NAG d 404       0.343  31.364  -3.203  0.00  0.00     0.163 HD
ATOM     34  O6A GCU d 403       2.379  28.150  -9.726  0.00  0.00    -0.648 OA
ATOM     35  O5  GCU d 403       2.140  29.282  -7.274  0.00  0.00    -0.340 OA
ATOM     36  O2  GCU d 403       3.830  29.814  -4.152  0.00  0.00    -0.388 OA
ATOM     37  C3  GCU d 403       4.654  30.063  -6.386  0.00  0.00     0.183 C 
ATOM     38  O6B GCU d 403       2.523  30.230 -10.486  0.00  0.00    -0.774 OA
ATOM     39  C1  GCU d 403       2.279  29.479  -5.895  0.00  0.00     0.292 C 
ATOM     40  O3  GCU d 403       6.035  29.901  -6.029  0.00  0.00    -0.390 OA
ATOM     41  C6  GCU d 403       2.597  29.376  -9.580  0.00  0.00     0.172 C 
ATOM     42  O4  GCU d 403       5.338  30.278  -8.687  0.00  0.00    -0.348 OA
ATOM     43  C2  GCU d 403       3.736  29.289  -5.477  0.00  0.00     0.204 C 
ATOM     44  C5  GCU d 403       2.981  29.868  -8.231  0.00  0.00     0.253 C 
ATOM     45  C4  GCU d 403       4.440  29.632  -7.827  0.00  0.00     0.195 C 
ATOM     46  H   GCU d 403       4.740  29.720  -3.831  0.00  0.00     0.210 HD
ATOM     47  H   GCU d 403       2.701  31.130 -10.297  0.00  0.00     0.167 HD
ATOM     48  H   GCU d 403       6.285  28.968  -6.118  0.00  0.00     0.210 HD
ATOM     49  C2  NAG d 402       6.817  30.504 -10.462  0.00  0.00     0.171 C 
ATOM     50  C5  NAG d 402       7.558  27.757  -9.913  0.00  0.00     0.179 C 
ATOM     51  C3  NAG d 402       7.604  29.720 -11.498  0.00  0.00     0.183 C 
ATOM     52  C4  NAG d 402       8.426  28.623 -10.806  0.00  0.00     0.180 C 
ATOM     53  O6  NAG d 402       9.061  27.229  -8.014  0.00  0.00    -0.398 OA
ATOM     54  C7  NAG d 402       6.044  32.849 -10.775  0.00  0.00     0.214 C 
ATOM     55  O5  NAG d 402       6.875  28.601  -8.983  0.00  0.00    -0.349 OA
ATOM     56  N2  NAG d 402       5.910  31.515 -11.028  0.00  0.00    -0.349 N 
ATOM     57  O7  NAG d 402       6.906  33.311 -10.056  0.00  0.00    -0.274 OA
ATOM     58  O4  NAG d 402       9.004  27.781 -11.807  0.00  0.00    -0.390 OA
ATOM     59  C8  NAG d 402       5.062  33.803 -11.433  0.00  0.00     0.117 C 
ATOM     60  C1  NAG d 402       6.006  29.550  -9.580  0.00  0.00     0.286 C 
ATOM     61  O3  NAG d 402       8.569  30.541 -12.111  0.00  0.00    -0.348 OA
ATOM     62  C6  NAG d 402       8.309  26.721  -9.113  0.00  0.00     0.198 C 
ATOM     63  H   NAG d 402       9.507  26.496  -7.561  0.00  0.00     0.209 HD
ATOM     64  H   NAG d 402       5.177  31.217 -11.613  0.00  0.00     0.163 HD
ATOM     65  H   NAG d 402       8.298  27.368 -12.329  0.00  0.00     0.210 HD
ATOM     66  O4  GCU d 405      -1.949  28.854  -1.891  0.00  0.00    -0.189 OA
ENDROOT
TORSDOF 23
