REMARK  0 active torsions:
REMARK  status: ('A' for Active; 'I' for Inactive)
REMARK       I    between atoms: N_1  and  C2_27 
REMARK       I    between atoms: N_1  and  C7_28 
REMARK       I    between atoms: O3_4  and  C3_48 
REMARK       I    between atoms: O6_5  and  C6_40 
REMARK       I    between atoms: C4_6  and  O4_50 
REMARK       I    between atoms: O1_8  and  C1_60 
REMARK       I    between atoms: C6_9  and  C5_20 
REMARK       I    between atoms: C6_9  and  O6B_26 
REMARK       I    between atoms: C3_10  and  O3_22 
REMARK       I    between atoms: C3_11  and  O3_33 
REMARK       I    between atoms: O4_12  and  C4_34 
REMARK       I    between atoms: O4_12  and  S_16 
REMARK       I    between atoms: C2_13  and  O2_32 
REMARK       I    between atoms: O2_15  and  C2_54 
REMARK       I    between atoms: O1_17  and  C1_30 
REMARK       I    between atoms: O1_17  and  C4_39 
REMARK       I    between atoms: C3_21  and  O3_24 
REMARK       I    between atoms: O3_22  and  C1_46 
REMARK       I    between atoms: N_29  and  C2_51 
REMARK       I    between atoms: N_29  and  C7_58 
REMARK       I    between atoms: C6_31  and  C5_59 
REMARK       I    between atoms: C6_31  and  O6B_55 
REMARK       I    between atoms: O3_33  and  C1_36 
REMARK       I    between atoms: C5_35  and  C6_49 
REMARK       I    between atoms: C6_40  and  C5_56 
REMARK       I    between atoms: S_43  and  O4_50 
REMARK       I    between atoms: C6_49  and  O6_53 
ROOT
ATOM      1  N   ASG d 810      -2.008  40.551  75.486  0.00  0.00    -0.349 N 
ATOM      2  C8  ASG d 810      -3.064  40.567  73.326  0.00  0.00     0.117 C 
ATOM      3  O6  ASG d 810       1.079  39.662  80.771  0.00  0.00    -0.398 OA
ATOM      4  C4  ASG d 810      -1.217  38.198  78.235  0.00  0.00     0.207 C 
ATOM      5  OSC ASG d 810       1.324  35.418  77.085  0.00  0.00    -0.572 OA
ATOM      6  C3  ASG d 810      -2.056  38.928  77.193  0.00  0.00     0.185 C 
ATOM      7  O7  ASG d 810      -0.856  39.616  73.797  0.00  0.00    -0.274 OA
ATOM      8  O1  ASG d 810       0.156  41.954  76.981  0.00  0.00    -0.348 OA
ATOM      9  OSB ASG d 810      -1.143  35.143  76.699  0.00  0.00    -0.572 OA
ATOM     10  O5  ASG d 810       0.106  40.246  78.523  0.00  0.00    -0.349 OA
ATOM     11  C2  ASG d 810      -1.190  39.989  76.529  0.00  0.00     0.171 C 
ATOM     12  C7  ASG d 810      -1.868  40.193  74.192  0.00  0.00     0.214 C 
ATOM     13  C1  ASG d 810      -0.703  40.985  77.597  0.00  0.00     0.286 C 
ATOM     14  O3  ASG d 810      -2.488  37.996  76.170  0.00  0.00    -0.348 OA
ATOM     15  C6  ASG d 810       0.414  38.555  80.181  0.00  0.00     0.199 C 
ATOM     16  S   ASG d 810      -0.158  35.811  77.549  0.00  0.00     0.252 S 
ATOM     17  O4  ASG d 810      -0.234  37.447  77.490  0.00  0.00    -0.246 OA
ATOM     18  OSA ASG d 810      -0.264  35.520  78.972  0.00  0.00    -0.572 OA
ATOM     19  C5  ASG d 810      -0.580  39.198  79.220  0.00  0.00     0.181 C 
ATOM     20  H   ASG d 810      -2.692  41.218  75.724  0.00  0.00     0.163 HD
ATOM     21  H   ASG d 810       1.739  39.342  81.406  0.00  0.00     0.209 HD
ATOM     22  OSA ASG d 812       0.735  49.094  75.720  0.00  0.00    -0.572 OA
ATOM     23  O1  ASG d 812       7.004  48.999  78.021  0.00  0.00    -0.369 OA
ATOM     24  C3  ASG d 812       4.086  46.817  77.181  0.00  0.00     0.185 C 
ATOM     25  O4  ASG d 812       2.732  48.746  77.213  0.00  0.00    -0.246 OA
ATOM     26  S   ASG d 812       1.466  49.696  76.794  0.00  0.00     0.252 S 
ATOM     27  C8  ASG d 812       6.726  45.185  80.504  0.00  0.00     0.117 C 
ATOM     28  O3  ASG d 812       3.191  46.237  78.146  0.00  0.00    -0.348 OA
ATOM     29  N   ASG d 812       5.890  46.486  78.684  0.00  0.00    -0.349 N 
ATOM     30  C4  ASG d 812       3.415  47.863  76.313  0.00  0.00     0.207 C 
ATOM     31  C5  ASG d 812       4.496  48.575  75.477  0.00  0.00     0.181 C 
ATOM     32  O7  ASG d 812       6.165  47.619  80.625  0.00  0.00    -0.274 OA
ATOM     33  OSB ASG d 812       0.587  49.891  77.897  0.00  0.00    -0.572 OA
ATOM     34  O5  ASG d 812       5.395  49.269  76.375  0.00  0.00    -0.349 OA
ATOM     35  C6  ASG d 812       3.970  49.517  74.410  0.00  0.00     0.199 C 
ATOM     36  C2  ASG d 812       5.141  47.516  78.013  0.00  0.00     0.171 C 
ATOM     37  O6  ASG d 812       5.060  49.915  73.578  0.00  0.00    -0.398 OA
ATOM     38  OSC ASG d 812       2.052  51.121  76.294  0.00  0.00    -0.572 OA
ATOM     39  C7  ASG d 812       6.239  46.534  79.983  0.00  0.00     0.214 C 
ATOM     40  C1  ASG d 812       6.109  48.318  77.144  0.00  0.00     0.282 C 
ATOM     41  H   ASG d 812       7.634  49.520  77.499  0.00  0.00     0.212 HD
ATOM     42  H   ASG d 812       6.164  45.698  78.161  0.00  0.00     0.163 HD
ATOM     43  H   ASG d 812       5.733  50.360  74.117  0.00  0.00     0.209 HD
ATOM     44  O3  GCT d 811       1.780  41.939  79.868  0.00  0.00    -0.390 OA
ATOM     45  O2  GCT d 811       3.879  43.903  79.713  0.00  0.00    -0.388 OA
ATOM     46  O6A GCT d 811      -0.160  46.375  76.521  0.00  0.00    -0.648 OA
ATOM     47  C6  GCT d 811      -0.344  45.221  77.011  0.00  0.00     0.172 C 
ATOM     48  C4  GCT d 811       0.727  43.108  78.044  0.00  0.00     0.195 C 
ATOM     49  O5  GCT d 811       2.059  44.722  76.755  0.00  0.00    -0.340 OA
ATOM     50  C1  GCT d 811       2.957  44.864  77.843  0.00  0.00     0.292 C 
ATOM     51  C3  GCT d 811       2.041  42.781  78.756  0.00  0.00     0.183 C 
ATOM     52  C2  GCT d 811       2.628  44.120  79.132  0.00  0.00     0.204 C 
ATOM     53  O6B GCT d 811      -1.415  44.859  77.543  0.00  0.00    -0.774 OA
ATOM     54  C5  GCT d 811       0.768  44.170  76.939  0.00  0.00     0.253 C 
ATOM     55  H   GCT d 811       1.406  41.100  79.557  0.00  0.00     0.210 HD
ATOM     56  H   GCT d 811       4.272  44.754  79.962  0.00  0.00     0.210 HD
ATOM     57  H   GCT d 811      -1.496  43.992  77.890  0.00  0.00     0.167 HD
ATOM     58  C6  GAD d 809      -6.620  37.950  78.354  0.00  0.00     0.200 C 
ATOM     59  C2  GAD d 809      -4.232  37.028  74.670  0.00  0.00     0.206 C 
ATOM     60  C5  GAD d 809      -5.947  37.604  77.070  0.00  0.00     0.144 C 
ATOM     61  C3  GAD d 809      -5.759  36.922  74.559  0.00  0.00     0.177 C 
ATOM     62  O3  GAD d 809      -6.177  35.590  74.158  0.00  0.00    -0.389 OA
ATOM     63  O6B GAD d 809      -5.939  37.885  79.450  0.00  0.00    -0.771 OA
ATOM     64  O2  GAD d 809      -3.607  37.272  73.324  0.00  0.00    -0.388 OA
ATOM     65  C1  GAD d 809      -3.881  38.001  75.866  0.00  0.00     0.298 C 
ATOM     66  C4  GAD d 809      -6.506  37.241  75.879  0.00  0.00     0.051 C 
ATOM     67  O5  GAD d 809      -4.528  37.724  77.118  0.00  0.00    -0.311 OA
ATOM     68  O6A GAD d 809      -7.791  38.393  78.240  0.00  0.00    -0.645 OA
ATOM     69  H   GAD d 809      -5.930  34.953  74.847  0.00  0.00     0.210 HD
ATOM     70  H   GAD d 809      -5.069  37.538  79.441  0.00  0.00     0.167 HD
ATOM     71  H   GAD d 809      -3.951  38.099  72.953  0.00  0.00     0.210 HD
ENDROOT
TORSDOF 25
