REMARK 17 active torsions
REMARK    1  A    between atoms: atom4  and  atom_
REMARK    2  A    between atoms: atom7  and  atom_
REMARK    3  A    between atoms: atom9  and  atom_
REMARK    4  A    between atoms: atom1  and  atom0
REMARK    5  A    between atoms: atom1  and  atom9
REMARK    6  A    between atoms: atom1  and  atom1
REMARK    7  A    between atoms: atom1  and  atom2
REMARK    8  A    between atoms: atom1  and  atom_
REMARK    9  A    between atoms: atom5  and  atom0
REMARK    10  A    between atoms: atom5  and  atom2
REMARK    11  A    between atoms: atom5  and  atom3
REMARK    12  A    between atoms: atom5  and  atom6
REMARK    13  A    between atoms: atom2  and  atom6
REMARK    14  A    between atoms: atom3  and  atom_
REMARK    15  A    between atoms: atom4  and  atom2
REMARK    16  A    between atoms: atom5  and  atom_
REMARK    17  A    between atoms: atom2  and  atom_
ROOT
ATOM      1  C1  BDP d1197      10.135  14.715  -2.492  0.00  0.00     0.292 C 
ATOM      2  C2  BDP d1197       9.343  15.120  -3.736  0.00  0.00     0.204 C 
ATOM      3  C5  BDP d1197       8.019  14.283  -1.304  0.00  0.00     0.253 C 
ATOM      4  C4  BDP d1197       7.158  14.676  -2.503  0.00  0.00     0.195 C 
ATOM      5  C3  BDP d1197       7.923  15.609  -3.441  0.00  0.00     0.183 C 
ATOM      6  O5  BDP d1197       9.352  13.866  -1.643  0.00  0.00    -0.340 OA
ENDROOT
BRANCH   1  50
ATOM     50  O1  BDP d1197      11.341  14.052  -2.920  0.00  0.00    -0.348 OA
BRANCH  50  51
ATOM     51  C3  ASG d1196      12.244  13.527  -1.934  0.00  0.00     0.185 C 
ATOM     52  C4  ASG d1196      11.996  12.033  -1.765  0.00  0.00     0.207 C 
ATOM     53  C5  ASG d1196      12.908  11.493  -0.666  0.00  0.00     0.181 C 
ATOM     54  O5  ASG d1196      14.274  11.691  -1.039  0.00  0.00    -0.349 OA
ATOM     55  C1  ASG d1196      14.584  13.075  -1.183  0.00  0.00     0.282 C 
ATOM     56  C2  ASG d1196      13.722  13.670  -2.299  0.00  0.00     0.171 C 
ATOM     65  O1  ASG d1196      15.968  13.186  -1.530  0.00  0.00    -0.369 OA
ATOM     66  H   ASG d1196      16.134  12.705  -2.356  0.00  0.00     0.212 HD
BRANCH  52  57
ATOM     57  O4  ASG d1196      12.513  11.458  -2.973  0.00  0.00    -0.246 OA
ATOM     58  S   ASG d1196      11.780  10.422  -3.840  0.00  0.00     0.252 S 
ATOM     59  OSB ASG d1196      12.080  10.725  -5.258  0.00  0.00    -0.572 OA
ATOM     60  OSA ASG d1196      10.316  10.492  -3.624  0.00  0.00    -0.572 OA
ATOM     61  OSC ASG d1196      12.297   9.068  -3.524  0.00  0.00    -0.572 OA
ENDBRANCH  52  57
BRANCH  53  62
ATOM     62  C6  ASG d1196      12.671  10.018  -0.372  0.00  0.00     0.199 C 
ATOM     63  O6  ASG d1196      13.812   9.499   0.320  0.00  0.00    -0.398 OA
ATOM     64  H   ASG d1196      14.602   9.607  -0.233  0.00  0.00     0.209 HD
ENDBRANCH  53  62
BRANCH  56  67
ATOM     67  N   ASG d1196      14.053  15.090  -2.300  0.00  0.00    -0.349 N 
ATOM     68  C7  ASG d1196      14.640  15.662  -3.352  0.00  0.00     0.214 C 
ATOM     69  C8  ASG d1196      14.920  14.778  -4.530  0.00  0.00     0.117 C 
ATOM     70  O7  ASG d1196      14.930  16.847  -3.364  0.00  0.00    -0.274 OA
ATOM     71  H   ASG d1196      13.839  15.637  -1.510  0.00  0.00     0.163 HD
ENDBRANCH  56  67
ENDBRANCH  50  51
ENDBRANCH   1  50
BRANCH   2  48
ATOM     48  O2  BDP d1197      10.063  16.138  -4.445  0.00  0.00    -0.388 OA
ATOM     49  H   BDP d1197      10.144  16.926  -3.885  0.00  0.00     0.210 HD
ENDBRANCH   2  48
BRANCH   3  42
ATOM     42  C6  BDP d1197       7.345  13.106  -0.666  0.00  0.00     0.172 C 
ATOM     43  O6A BDP d1197       6.881  13.223   0.490  0.00  0.00    -0.648 OA
BRANCH  42  44
ATOM     44  O6B BDP d1197       7.266  12.052  -1.334  0.00  0.00    -0.774 OA
ATOM     45  H   BDP d1197       7.630  12.016  -2.197  0.00  0.00     0.167 HD
ENDBRANCH  42  44
ENDBRANCH   3  42
BRANCH   4   7
ATOM      7  O1  ASG d1198       5.955  15.320  -2.033  0.00  0.00    -0.348 OA
BRANCH   7   8
ATOM      8  C1  ASG d1198       4.692  14.636  -2.099  0.00  0.00     0.286 C 
ATOM      9  C2  ASG d1198       3.601  15.467  -1.391  0.00  0.00     0.171 C 
ATOM     10  C3  ASG d1198       2.180  14.962  -1.687  0.00  0.00     0.185 C 
ATOM     11  C4  ASG d1198       1.992  14.732  -3.181  0.00  0.00     0.207 C 
ATOM     12  C5  ASG d1198       3.096  13.800  -3.671  0.00  0.00     0.181 C 
ATOM     13  O5  ASG d1198       4.365  14.432  -3.477  0.00  0.00    -0.349 OA
BRANCH   9  14
ATOM     14  N   ASG d1198       3.758  15.215   0.038  0.00  0.00    -0.349 N 
ATOM     15  C7  ASG d1198       3.571  16.152   0.973  0.00  0.00     0.214 C 
ATOM     16  O7  ASG d1198       3.706  15.894   2.156  0.00  0.00    -0.274 OA
ATOM     17  C8  ASG d1198       3.206  17.536   0.518  0.00  0.00     0.117 C 
ATOM     18  H   ASG d1198       4.014  14.310   0.328  0.00  0.00     0.163 HD
ENDBRANCH   9  14
BRANCH  10  19
ATOM     19  O1  BDP d1199       1.163  15.850  -1.193  0.00  0.00    -0.348 OA
BRANCH  19  20
ATOM     20  C1  BDP d1199       0.157  15.267  -0.352  0.00  0.00     0.292 C 
ATOM     21  O5  BDP d1199      -0.444  14.195  -1.091  0.00  0.00    -0.343 OA
ATOM     22  C5  BDP d1199      -1.619  13.580  -0.550  0.00  0.00     0.224 C 
ATOM     23  C4  BDP d1199      -2.677  14.605  -0.155  0.00  0.00     0.077 C 
ATOM     24  C3  BDP d1199      -2.077  15.644   0.779  0.00  0.00     0.154 C 
ATOM     25  C2  BDP d1199      -0.873  16.302   0.110  0.00  0.00     0.202 C 
ATOM     26  C6  BDP d1199      -2.170  12.622  -1.569  0.00  0.00     0.170 C 
ATOM     27  O6B BDP d1199      -3.050  13.024  -2.361  0.00  0.00    -0.648 OA
ATOM     30  O3  BDP d1199      -3.077  16.618   1.103  0.00  0.00    -0.393 OA
ATOM     31  H   BDP d1199      -3.385  17.048   0.290  0.00  0.00     0.210 HD
ATOM     32  O2  BDP d1199      -0.255  17.196   1.040  0.00  0.00    -0.388 OA
ATOM     33  H   BDP d1199      -0.903  17.854   1.336  0.00  0.00     0.210 HD
BRANCH  26  28
ATOM     28  O6A BDP d1199      -1.716  11.456  -1.603  0.00  0.00    -0.774 OA
ATOM     29  H   BDP d1199      -1.056  11.192  -0.992  0.00  0.00     0.167 HD
ENDBRANCH  26  28
ENDBRANCH  19  20
ENDBRANCH  10  19
BRANCH  11  34
ATOM     34  O4  ASG d1198       2.131  15.998  -3.834  0.00  0.00    -0.246 OA
ATOM     35  S   ASG d1198       1.005  16.622  -4.680  0.00  0.00     0.252 S 
ATOM     36  OSC ASG d1198       1.569  17.708  -5.514  0.00  0.00    -0.572 OA
ATOM     37  OSB ASG d1198      -0.028  17.179  -3.779  0.00  0.00    -0.572 OA
ATOM     38  OSA ASG d1198       0.386  15.597  -5.550  0.00  0.00    -0.572 OA
ENDBRANCH  11  34
BRANCH  12  39
ATOM     39  C6  ASG d1198       2.916  13.417  -5.135  0.00  0.00     0.199 C 
ATOM     40  O6  ASG d1198       1.518  13.313  -5.402  0.00  0.00    -0.398 OA
ATOM     41  H   ASG d1198       1.128  12.639  -4.824  0.00  0.00     0.209 HD
ENDBRANCH  12  39
ENDBRANCH   7   8
ENDBRANCH   4   7
BRANCH   5  46
ATOM     46  O3  BDP d1197       7.218  15.692  -4.687  0.00  0.00    -0.390 OA
ATOM     47  H   BDP d1197       7.177  14.813  -5.095  0.00  0.00     0.210 HD
ENDBRANCH   5  46
TORSDOF 17
