REMARK  0 active torsions:
REMARK  status: ('A' for Active; 'I' for Inactive)
REMARK       I    between atoms: S_1  and  O4_9 
REMARK       I    between atoms: C4_3  and  O4_8 
REMARK       I    between atoms: C4_4  and  O4_11 
REMARK       I    between atoms: C1_5  and  O4_11 
REMARK       I    between atoms: C5_6  and  C6_17 
REMARK       I    between atoms: C2_7  and  N_53 
REMARK       I    between atoms: O4_8  and  S_55 
REMARK       I    between atoms: O4_9  and  C4_39 
REMARK       I    between atoms: C5_13  and  C6_20 
REMARK       I    between atoms: C1_14  and  O3_42 
REMARK       I    between atoms: C7_16  and  N_43 
REMARK       I    between atoms: C6_17  and  O6_27 
REMARK       I    between atoms: C6_18  and  C5_48 
REMARK       I    between atoms: C6_18  and  O6B_28 
REMARK       I    between atoms: C3_19  and  O3_42 
REMARK       I    between atoms: C6_20  and  O6_22 
REMARK       I    between atoms: C5_23  and  C6_33 
REMARK       I    between atoms: C3_26  and  O3_37 
REMARK       I    between atoms: O2_29  and  C2_32 
REMARK       I    between atoms: O1_31  and  C1_50 
REMARK       I    between atoms: C6_33  and  O6B_51 
REMARK       I    between atoms: C3_36  and  O3_57 
REMARK       I    between atoms: C2_38  and  N_43 
REMARK       I    between atoms: C2_40  and  O2_58 
REMARK       I    between atoms: C3_41  and  O3_45 
REMARK       I    between atoms: O3_45  and  C1_56 
REMARK       I    between atoms: N_53  and  C7_54 
ROOT
ATOM      1  S   ASG d 608      26.020  25.870   1.147  0.00  0.00     0.252 S 
ATOM      2  C5  ASG d 608      27.505  22.532   1.988  0.00  0.00     0.181 C 
ATOM      3  C2  ASG d 608      25.303  21.735   0.281  0.00  0.00     0.171 C 
ATOM      4  O4  ASG d 608      26.017  24.304   1.443  0.00  0.00    -0.246 OA
ATOM      5  C6  ASG d 608      28.038  23.326   3.187  0.00  0.00     0.199 C 
ATOM      6  OSC ASG d 608      25.114  26.261   0.049  0.00  0.00    -0.572 OA
ATOM      7  OSA ASG d 608      25.734  26.515   2.445  0.00  0.00    -0.572 OA
ATOM      8  O6  ASG d 608      29.290  23.944   2.903  0.00  0.00    -0.398 OA
ATOM      9  O5  ASG d 608      26.401  21.741   2.486  0.00  0.00    -0.349 OA
ATOM     10  O1  ASG d 608      24.712  20.263   2.060  0.00  0.00    -0.369 OA
ATOM     11  C4  ASG d 608      27.008  23.439   0.861  0.00  0.00     0.207 C 
ATOM     12  C3  ASG d 608      26.442  22.592  -0.258  0.00  0.00     0.185 C 
ATOM     13  O3  ASG d 608      25.969  23.433  -1.327  0.00  0.00    -0.348 OA
ATOM     14  C8  ASG d 608      23.315  20.138  -2.542  0.00  0.00     0.117 C 
ATOM     15  C1  ASG d 608      25.795  20.903   1.482  0.00  0.00     0.282 C 
ATOM     16  N   ASG d 608      24.835  20.844  -0.769  0.00  0.00    -0.349 N 
ATOM     17  C7  ASG d 608      23.690  21.084  -1.408  0.00  0.00     0.214 C 
ATOM     18  OSB ASG d 608      27.387  26.211   0.715  0.00  0.00    -0.572 OA
ATOM     19  O7  ASG d 608      22.931  22.008  -1.118  0.00  0.00    -0.274 OA
ATOM     20  H   ASG d 608      29.947  23.262   2.695  0.00  0.00     0.209 HD
ATOM     21  H   ASG d 608      24.286  19.691   1.403  0.00  0.00     0.212 HD
ATOM     22  H   ASG d 608      25.370  20.054  -1.011  0.00  0.00     0.163 HD
ATOM     23  O5  ASG d 610      27.907  27.388  -6.421  0.00  0.00    -0.349 OA
ATOM     24  C4  ASG d 610      29.137  28.807  -7.951  0.00  0.00     0.207 C 
ATOM     25  C1  ASG d 610      29.103  26.854  -5.822  0.00  0.00     0.286 C 
ATOM     26  O4  ASG d 610      28.744  27.962  -9.055  0.00  0.00    -0.246 OA
ATOM     27  C8  ASG d 610      33.301  24.889  -5.729  0.00  0.00     0.117 C 
ATOM     28  C5  ASG d 610      28.068  28.753  -6.855  0.00  0.00     0.181 C 
ATOM     29  C7  ASG d 610      32.125  25.374  -6.570  0.00  0.00     0.214 C 
ATOM     30  C3  ASG d 610      30.455  28.307  -7.330  0.00  0.00     0.185 C 
ATOM     31  C6  ASG d 610      26.704  29.253  -7.291  0.00  0.00     0.199 C 
ATOM     32  OSC ASG d 610      28.480  27.583 -11.536  0.00  0.00    -0.572 OA
ATOM     33  O6  ASG d 610      25.825  29.389  -6.182  0.00  0.00    -0.398 OA
ATOM     34  O7  ASG d 610      31.819  24.776  -7.605  0.00  0.00    -0.274 OA
ATOM     35  C2  ASG d 610      30.269  26.891  -6.804  0.00  0.00     0.171 C 
ATOM     36  O3  ASG d 610      31.538  28.340  -8.281  0.00  0.00    -0.348 OA
ATOM     37  N   ASG d 610      31.476  26.449  -6.133  0.00  0.00    -0.349 N 
ATOM     38  OSA ASG d 610      27.507  29.527 -10.520  0.00  0.00    -0.572 OA
ATOM     39  OSB ASG d 610      29.898  29.410 -10.792  0.00  0.00    -0.572 OA
ATOM     40  S   ASG d 610      28.674  28.631 -10.515  0.00  0.00     0.252 S 
ATOM     41  H   ASG d 610      25.703  28.525  -5.758  0.00  0.00     0.209 HD
ATOM     42  H   ASG d 610      31.815  26.945  -5.353  0.00  0.00     0.163 HD
ATOM     43  C4  BDP d 609      27.949  25.344  -4.384  0.00  0.00     0.195 C 
ATOM     44  O4  BDP d 609      28.861  25.542  -5.466  0.00  0.00    -0.348 OA
ATOM     45  O6A BDP d 609      30.902  25.582  -2.639  0.00  0.00    -0.648 OA
ATOM     46  C6  BDP d 609      29.697  25.915  -2.641  0.00  0.00     0.172 C 
ATOM     47  O6B BDP d 609      29.258  27.030  -2.291  0.00  0.00    -0.774 OA
ATOM     48  C3  BDP d 609      26.930  24.303  -4.806  0.00  0.00     0.183 C 
ATOM     49  C2  BDP d 609      26.003  23.979  -3.643  0.00  0.00     0.204 C 
ATOM     50  C5  BDP d 609      28.705  24.882  -3.144  0.00  0.00     0.253 C 
ATOM     51  O5  BDP d 609      27.769  24.637  -2.078  0.00  0.00    -0.340 OA
ATOM     52  C1  BDP d 609      26.822  23.598  -2.402  0.00  0.00     0.292 C 
ATOM     53  O3  BDP d 609      26.174  24.823  -5.892  0.00  0.00    -0.390 OA
ATOM     54  O2  BDP d 609      25.161  22.892  -3.999  0.00  0.00    -0.388 OA
ATOM     55  H   BDP d 609      28.337  27.202  -2.322  0.00  0.00     0.167 HD
ATOM     56  H   BDP d 609      25.724  25.636  -5.613  0.00  0.00     0.210 HD
ATOM     57  H   BDP d 609      25.705  22.114  -4.199  0.00  0.00     0.210 HD
ATOM     58  C4  GCD d 611      34.052  31.710  -8.471  0.00  0.00     0.051 C 
ATOM     59  C1  GCD d 611      32.466  29.337  -8.048  0.00  0.00     0.298 C 
ATOM     60  C5  GCD d 611      32.712  31.796  -8.672  0.00  0.00     0.144 C 
ATOM     61  C3  GCD d 611      34.682  30.268  -8.428  0.00  0.00     0.177 C 
ATOM     62  O2  GCD d 611      34.378  27.851  -8.059  0.00  0.00    -0.388 OA
ATOM     63  C2  GCD d 611      33.771  29.011  -8.701  0.00  0.00     0.206 C 
ATOM     64  C6  GCD d 611      31.864  33.040  -8.755  0.00  0.00     0.200 C 
ATOM     65  O5  GCD d 611      31.950  30.538  -8.810  0.00  0.00    -0.311 OA
ATOM     66  O3  GCD d 611      35.882  29.977  -9.159  0.00  0.00    -0.389 OA
ATOM     67  O6A GCD d 611      31.498  33.292  -9.968  0.00  0.00    -0.645 OA
ATOM     68  O6B GCD d 611      31.561  33.626  -7.642  0.00  0.00    -0.771 OA
ATOM     69  H   GCD d 611      33.828  27.068  -8.219  0.00  0.00     0.210 HD
ATOM     70  H   GCD d 611      35.670  29.869 -10.099  0.00  0.00     0.210 HD
ATOM     71  H   GCD d 611      31.919  33.312  -6.835  0.00  0.00     0.167 HD
ENDROOT
TORSDOF 25
