REMARK 7 active torsions
REMARK    1  A    between atoms: atom4  and  atom_
REMARK    2  A    between atoms: atom7  and  atom_
REMARK    3  A    between atoms: atom3  and  atom_
REMARK    4  A    between atoms: atom5  and  atom_
REMARK    5  A    between atoms: atom6  and  atom_
REMARK    6  A    between atoms: atom1  and  atom4
REMARK    7  A    between atoms: atom1  and  atom_
ROOT
ATOM      1  C1  ASG d 517      25.694  21.103   1.552  0.00  0.00     0.282 C 
ATOM      2  O5  ASG d 517      26.230  21.908   2.592  0.00  0.00    -0.349 OA
ATOM      3  C4  ASG d 517      27.071  23.424   0.996  0.00  0.00     0.207 C 
ATOM      4  C3  ASG d 517      26.517  22.618  -0.176  0.00  0.00     0.185 C 
ATOM      5  C2  ASG d 517      25.296  21.868   0.310  0.00  0.00     0.171 C 
ATOM      6  C5  ASG d 517      27.422  22.561   2.204  0.00  0.00     0.181 C 
ENDROOT
BRANCH   1  35
ATOM     35  O1  ASG d 517      24.544  20.440   2.020  0.00  0.00    -0.369 OA
ATOM     36  H   ASG d 517      23.866  21.094   2.252  0.00  0.00     0.212 HD
ENDBRANCH   1  35
BRANCH   3  22
ATOM     22  O4  ASG d 517      26.042  24.336   1.421  0.00  0.00    -0.246 OA
ATOM     23  S   ASG d 517      26.065  25.956   1.239  0.00  0.00     0.252 S 
ATOM     24  OSC ASG d 517      27.368  26.249   0.718  0.00  0.00    -0.572 OA
ATOM     25  OSB ASG d 517      24.926  26.286   0.222  0.00  0.00    -0.572 OA
ATOM     26  OSA ASG d 517      25.772  26.634   2.490  0.00  0.00    -0.572 OA
ENDBRANCH   3  22
BRANCH   4   7
ATOM      7  O3  ASG d 517      26.036  23.496  -1.188  0.00  0.00    -0.348 OA
BRANCH   7   8
ATOM      8  C1  GCD d 519      26.747  23.411  -2.440  0.00  0.00     0.298 C 
ATOM      9  O5  GCD d 519      28.047  23.943  -2.230  0.00  0.00    -0.311 OA
ATOM     10  C5  GCD d 519      28.616  25.061  -2.945  0.00  0.00     0.144 C 
ATOM     11  C4  GCD d 519      28.168  25.356  -4.178  0.00  0.00     0.051 C 
ATOM     12  C3  GCD d 519      27.026  24.531  -4.744  0.00  0.00     0.177 C 
ATOM     13  C2  GCD d 519      26.063  24.164  -3.590  0.00  0.00     0.206 C 
ATOM     14  C6  GCD d 519      29.708  25.764  -2.289  0.00  0.00     0.200 C 
ATOM     15  O6B GCD d 519      29.827  25.637  -1.054  0.00  0.00    -0.645 OA
ATOM     18  O3  GCD d 519      26.385  25.326  -5.744  0.00  0.00    -0.389 OA
ATOM     19  H   GCD d 519      26.076  26.156  -5.348  0.00  0.00     0.210 HD
ATOM     20  O2  GCD d 519      25.007  23.339  -4.041  0.00  0.00    -0.388 OA
ATOM     21  H   GCD d 519      24.544  23.777  -4.772  0.00  0.00     0.210 HD
BRANCH  14  16
ATOM     16  O6A GCD d 519      30.523  26.421  -2.971  0.00  0.00    -0.771 OA
ATOM     17  H   GCD d 519      30.405  26.497  -3.897  0.00  0.00     0.167 HD
ENDBRANCH  14  16
ENDBRANCH   7   8
ENDBRANCH   4   7
BRANCH   5  27
ATOM     27  N   ASG d 517      24.825  20.883  -0.682  0.00  0.00    -0.349 N 
ATOM     28  C7  ASG d 517      23.668  21.093  -1.333  0.00  0.00     0.214 C 
ATOM     29  C8  ASG d 517      23.310  20.035  -2.380  0.00  0.00     0.117 C 
ATOM     30  O7  ASG d 517      22.918  22.052  -1.076  0.00  0.00    -0.274 OA
ATOM     31  H   ASG d 517      25.356  20.075  -0.867  0.00  0.00     0.163 HD
ENDBRANCH   5  27
BRANCH   6  32
ATOM     32  C6  ASG d 517      27.973  23.355   3.390  0.00  0.00     0.199 C 
ATOM     33  O6  ASG d 517      29.221  23.951   3.101  0.00  0.00    -0.398 OA
ATOM     34  H   ASG d 517      29.532  24.442   3.877  0.00  0.00     0.209 HD
ENDBRANCH   6  32
TORSDOF 7
