REMARK  16 active torsions:
REMARK  status: ('A' for Active; 'I' for Inactive)
REMARK    1  A    between atoms: C17_1  and  O25_32 
REMARK    2  A    between atoms: N14_2  and  C8_16 
REMARK    3  A    between atoms: N14_2  and  S20_34 
REMARK    4  A    between atoms: C7_3  and  O3_22 
REMARK    5  A    between atoms: C10_4  and  O15_5 
REMARK    6  A    between atoms: C6_8  and  C2_27 
REMARK    7  A    between atoms: C6_8  and  O11_31 
REMARK    8  A    between atoms: C27_9  and  C19_26 
REMARK    9  A    between atoms: O29_10  and  S20_34 
REMARK   10  A    between atoms: O9_11  and  C4_14 
REMARK   11  A    between atoms: S16_15  and  O11_31 
REMARK   12  A    between atoms: O30_17  and  S20_34 
REMARK   13  A    between atoms: O3_22  and  C1_29 
REMARK   14  A    between atoms: O18_24  and  C12_33 
REMARK   15  A    between atoms: O18_24  and  S26_35 
REMARK   16  A    between atoms: O28_30  and  S20_34 
ROOT
ATOM      1  C10 H1S d 301      17.826   7.465  32.230  0.00  0.00     0.278 C 
ATOM      2  O5  H1S d 301      18.783   8.478  32.639  0.00  0.00    -0.350 OA
ATOM      3  C4  H1S d 301      17.578   6.681  34.581  0.00  0.00     0.173 C 
ATOM      4  C8  H1S d 301      17.902   6.234  33.153  0.00  0.00     0.157 C 
ATOM      5  C2  H1S d 301      18.562   8.923  34.009  0.00  0.00     0.181 C 
ATOM      6  C1  H1S d 301      18.604   7.744  35.047  0.00  0.00     0.186 C 
ENDROOT
BRANCH   6   7
ATOM      7  O3  H1S d 301      18.409   8.245  36.398  0.00  0.00    -0.348 OA
BRANCH   7   8
ATOM      8  C7  H1S d 301      17.081   8.840  36.581  0.00  0.00     0.300 C 
ATOM      9  C12 H1S d 301      16.533   8.572  38.015  0.00  0.00     0.233 C 
ATOM     10  C17 H1S d 301      17.499   9.228  39.057  0.00  0.00     0.179 C 
ATOM     11  C24 H1S d 301      17.970  10.611  38.609  0.00  0.00     0.051 C 
ATOM     12  C19 H1S d 301      17.781  11.065  37.347  0.00  0.00     0.147 C 
ATOM     13  O13 H1S d 301      17.156  10.296  36.402  0.00  0.00    -0.311 OA
BRANCH   9  14
ATOM     14  O18 H1S d 301      15.233   9.199  38.134  0.00  0.00    -0.244 OA
BRANCH  14  15
ATOM     15  S26 H1S d 301      14.095   8.167  38.026  0.00  0.00     0.252 S 
ATOM     16  O32 H1S d 301      14.038   7.626  36.705  0.00  0.00    -0.572 OA
ATOM     17  O31 H1S d 301      12.869   8.830  38.306  0.00  0.00    -0.572 OA
ATOM     18  O33 H1S d 301      14.315   6.943  39.128  0.00  0.00    -0.572 OA
ENDBRANCH  14  15
ENDBRANCH   9  14
BRANCH  10  19
ATOM     19  O25 H1S d 301      18.641   8.383  39.252  0.00  0.00    -0.389 OA
ATOM     20  H   H1S d 301      19.121   8.289  38.414  0.00  0.00     0.210 HD
ENDBRANCH  10  19
BRANCH  12  21
ATOM     21  C27 H1S d 301      18.232  12.409  36.961  0.00  0.00     0.233 C 
ATOM     22  O34 H1S d 301      17.702  12.970  36.025  0.00  0.00    -0.642 OA
ATOM     23  O35 H1S d 301      19.255  13.054  37.667  0.00  0.00    -0.642 OA
ENDBRANCH  12  21
ENDBRANCH   7   8
ENDBRANCH   6   7
BRANCH   3  24
ATOM     24  O9  H1S d 301      17.625   5.571  35.485  0.00  0.00    -0.391 OA
ATOM     25  H   H1S d 301      17.417   5.876  36.382  0.00  0.00     0.210 HD
ENDBRANCH   3  24
BRANCH   5  26
ATOM     26  C6  H1S d 301      19.597  10.006  34.392  0.00  0.00     0.227 C 
BRANCH  26  27
ATOM     27  O11 H1S d 301      20.894   9.715  33.851  0.00  0.00    -0.254 OA
BRANCH  27  28
ATOM     28  S16 H1S d 301      21.952  10.298  34.806  0.00  0.00     0.251 S 
ATOM     29  O21 H1S d 301      21.850   9.682  36.091  0.00  0.00    -0.572 OA
ATOM     30  O22 H1S d 301      23.241  10.041  34.284  0.00  0.00    -0.572 OA
ATOM     31  O23 H1S d 301      21.744  11.939  34.961  0.00  0.00    -0.572 OA
ENDBRANCH  27  28
ENDBRANCH  26  27
ENDBRANCH   5  26
BRANCH   4  32
ATOM     32  N14 H1S d 301      16.931   5.233  32.726  0.00  0.00    -0.210 NA
ATOM     33  H   H1S d 301      16.614   5.504  31.795  0.00  0.00     0.140 HD
BRANCH  32  34
ATOM     34  S20 H1S d 301      17.386   3.649  32.636  0.00  0.00     0.156 S 
BRANCH  34  35
ATOM     35  O29 H1S d 301      16.333   2.889  32.058  0.00  0.00    -0.296 OA
ATOM     36  H   H1S d 301      16.144   3.224  31.168  0.00  0.00     0.231 HD
ENDBRANCH  34  35
BRANCH  34  37
ATOM     37  O30 H1S d 301      18.744   3.525  31.692  0.00  0.00    -0.296 OA
ATOM     38  H   H1S d 301      18.552   3.864  30.804  0.00  0.00     0.231 HD
ENDBRANCH  34  37
BRANCH  34  39
ATOM     39  O28 H1S d 301      17.659   3.154  33.941  0.00  0.00    -0.296 OA
ATOM     40  H   H1S d 301      16.862   3.229  34.489  0.00  0.00     0.231 HD
ENDBRANCH  34  39
ENDBRANCH  32  34
ENDBRANCH   4  32
BRANCH   1  41
ATOM     41  O15 H1S d 301      16.495   8.016  32.257  0.00  0.00    -0.369 OA
ATOM     42  H   H1S d 301      16.280   8.297  33.160  0.00  0.00     0.212 HD
ENDBRANCH   1  41
TORSDOF 16
