REMARK WARNING: 32 MAX_TORS EXCEEDED!!!
REMARK  37 active torsions:
REMARK  status: ('A' for Active; 'I' for Inactive)
REMARK    1  A    between atoms: C2_1  and  O2_78 
REMARK    2  A    between atoms: C1_2  and  O1_15 
REMARK    3  A    between atoms: C1_3  and  O4_50 
REMARK    4  A    between atoms: O4_5  and  C4_58 
REMARK    5  A    between atoms: O4_5  and  C1_27 
REMARK    6  A    between atoms: C2_6  and  N_39 
REMARK    7  A    between atoms: O3_8  and  C3_66 
REMARK    8  A    between atoms: S1_9  and  N_39 
REMARK    9  A    between atoms: C6_10  and  C5_52 
REMARK   10  A    between atoms: C6_10  and  O62_42 
REMARK   11  A    between atoms: O3_11  and  C3_31 
REMARK   12  A    between atoms: C2_12  and  N_73 
REMARK   13  A    between atoms: O3_16  and  C3_81 
REMARK   14  A    between atoms: C2_19  and  O2_24 
REMARK   15  A    between atoms: C2_21  and  O2_44 
REMARK   16  A    between atoms: O4_22  and  C4_68 
REMARK   17  A    between atoms: S2_23  and  O6_65 
REMARK   18  A    between atoms: O2_24  and  S_54 
REMARK   19  A    between atoms: C1_28  and  O4_60 
REMARK   20  A    between atoms: C5_29  and  C6_38 
REMARK   21  A    between atoms: C5_30  and  C6_33 
REMARK   22  A    between atoms: C3_32  and  O3_74 
REMARK   23  A    between atoms: C6_33  and  O62_51 
REMARK   24  A    between atoms: S1_34  and  N_73 
REMARK   25  A    between atoms: C6_38  and  O61_45 
REMARK   26  A    between atoms: C5_41  and  C6_46 
REMARK   27  A    between atoms: S_43  and  O2_44 
REMARK   28  A    between atoms: C6_46  and  O6_72 
REMARK   29  A    between atoms: O4_50  and  C4_71 
REMARK   30  A    between atoms: C1_56  and  O4_64 
REMARK   31  A    between atoms: O3_59  and  C3_70 
REMARK   32  A    between atoms: O4_60  and  C4_83 
REMARK   33  A    between atoms: C4_61  and  O4_64 
REMARK   34  A    between atoms: S2_63  and  O6_72 
REMARK   35  A    between atoms: O6_65  and  C6_67 
REMARK   36  A    between atoms: C6_67  and  C5_75 
REMARK   37  A    between atoms: S_76  and  O2_78 
ROOT
ATOM      1  C2  IDS d 504     -16.845  51.540 175.929  0.00  0.00     0.231 C 
ATOM      2  O5  IDS d 504     -16.155  51.761 173.603  0.00  0.00    -0.340 OA
ATOM      3  C5  IDS d 504     -16.766  50.548 173.226  0.00  0.00     0.253 C 
ATOM      4  C1  IDS d 504     -16.791  52.425 174.700  0.00  0.00     0.294 C 
ATOM      5  C3  IDS d 504     -17.325  50.075 175.596  0.00  0.00     0.185 C 
ATOM      6  C4  IDS d 504     -16.640  49.526 174.354  0.00  0.00     0.195 C 
ENDROOT
BRANCH   4   7
ATOM      7  O4  SGN d 503     -18.093  52.835 174.396  0.00  0.00    -0.348 OA
BRANCH   7   8
ATOM      8  C4  SGN d 503     -18.163  54.061 173.744  0.00  0.00     0.186 C 
ATOM      9  C3  SGN d 503     -19.171  53.946 172.603  0.00  0.00     0.173 C 
ATOM     10  C2  SGN d 503     -19.410  55.333 172.035  0.00  0.00     0.160 C 
ATOM     11  C1  SGN d 503     -19.806  56.333 173.131  0.00  0.00     0.282 C 
ATOM     12  O5  SGN d 503     -18.811  56.360 174.124  0.00  0.00    -0.349 OA
ATOM     13  C5  SGN d 503     -18.622  55.130 174.751  0.00  0.00     0.181 C 
BRANCH   9  14
ATOM     14  O3  SGN d 503     -18.616  53.107 171.608  0.00  0.00    -0.391 OA
ATOM     15  H   SGN d 503     -19.242  53.020 170.872  0.00  0.00     0.210 HD
ENDBRANCH   9  14
BRANCH  10  16
ATOM     16  N   SGN d 503     -20.411  55.309 170.983  0.00  0.00    -0.189 NA
ATOM     17  H   SGN d 503     -21.320  55.451 171.423  0.00  0.00     0.143 HD
BRANCH  16  18
ATOM     18  S1  SGN d 503     -20.273  56.404 169.787  0.00  0.00     0.183 S 
ATOM     19  O1S SGN d 503     -20.554  57.695 170.386  0.00  0.00    -0.582 OA
ATOM     20  O2S SGN d 503     -18.913  56.330 169.255  0.00  0.00    -0.582 OA
ATOM     21  O3S SGN d 503     -21.292  55.997 168.846  0.00  0.00    -0.582 OA
ENDBRANCH  16  18
ENDBRANCH  10  16
BRANCH  11  22
ATOM     22  O4  IDS d 502     -21.060  56.015 173.670  0.00  0.00    -0.348 OA
BRANCH  22  23
ATOM     23  C4  IDS d 502     -21.889  57.120 173.923  0.00  0.00     0.195 C 
ATOM     24  C3  IDS d 502     -23.336  56.785 173.514  0.00  0.00     0.185 C 
ATOM     25  C2  IDS d 502     -23.949  55.752 174.464  0.00  0.00     0.231 C 
ATOM     26  C1  IDS d 502     -23.728  56.123 175.927  0.00  0.00     0.291 C 
ATOM     27  O5  IDS d 502     -22.376  56.410 176.183  0.00  0.00    -0.340 OA
ATOM     28  C5  IDS d 502     -21.837  57.464 175.410  0.00  0.00     0.253 C 
BRANCH  24  29
ATOM     29  O3  IDS d 502     -24.117  57.962 173.583  0.00  0.00    -0.390 OA
ATOM     30  H   IDS d 502     -25.030  57.760 173.327  0.00  0.00     0.210 HD
ENDBRANCH  24  29
BRANCH  25  31
ATOM     31  O2  IDS d 502     -23.304  54.530 174.223  0.00  0.00    -0.244 OA
BRANCH  31  32
ATOM     32  S   IDS d 502     -23.538  53.542 173.033  0.00  0.00     0.252 S 
ATOM     33  O3S IDS d 502     -24.597  52.674 173.479  0.00  0.00    -0.572 OA
ATOM     34  O2S IDS d 502     -22.278  52.866 172.828  0.00  0.00    -0.572 OA
ATOM     35  O1S IDS d 502     -23.927  54.329 171.896  0.00  0.00    -0.572 OA
ENDBRANCH  31  32
ENDBRANCH  25  31
BRANCH  26  36
ATOM     36  O1  IDS d 502     -24.575  57.199 176.232  0.00  0.00    -0.368 OA
ATOM     37  H   IDS d 502     -24.360  57.952 175.659  0.00  0.00     0.212 HD
ENDBRANCH  26  36
BRANCH  28  38
ATOM     38  C6  IDS d 502     -20.453  57.848 175.914  0.00  0.00     0.172 C 
ATOM     39  O61 IDS d 502     -19.872  57.171 176.727  0.00  0.00    -0.648 OA
BRANCH  38  40
ATOM     40  O62 IDS d 502     -19.893  58.847 175.506  0.00  0.00    -0.774 OA
ATOM     41  H   IDS d 502     -20.315  59.396 174.874  0.00  0.00     0.167 HD
ENDBRANCH  38  40
ENDBRANCH  28  38
ENDBRANCH  22  23
ENDBRANCH  11  22
BRANCH  13  42
ATOM     42  C6  SGN d 503     -17.635  55.413 175.851  0.00  0.00     0.227 C 
BRANCH  42  43
ATOM     43  O6  SGN d 503     -16.440  55.857 175.246  0.00  0.00    -0.254 OA
BRANCH  43  44
ATOM     44  S2  SGN d 503     -15.425  56.849 175.873  0.00  0.00     0.251 S 
ATOM     45  O4S SGN d 503     -15.407  56.640 177.281  0.00  0.00    -0.572 OA
ATOM     46  O5S SGN d 503     -14.127  56.575 175.264  0.00  0.00    -0.572 OA
ATOM     47  O6S SGN d 503     -15.969  58.117 175.578  0.00  0.00    -0.572 OA
ENDBRANCH  43  44
ENDBRANCH  42  43
ENDBRANCH  13  42
ENDBRANCH   7   8
ENDBRANCH   4   7
BRANCH   1  48
ATOM     48  O2  IDS d 504     -15.548  51.517 176.522  0.00  0.00    -0.244 OA
BRANCH  48  49
ATOM     49  S   IDS d 504     -15.184  51.946 177.955  0.00  0.00     0.252 S 
ATOM     50  O3S IDS d 504     -16.021  53.062 178.192  0.00  0.00    -0.572 OA
ATOM     51  O2S IDS d 504     -13.779  52.230 177.979  0.00  0.00    -0.572 OA
ATOM     52  O1S IDS d 504     -15.510  50.852 178.795  0.00  0.00    -0.572 OA
ENDBRANCH  48  49
ENDBRANCH   1  48
BRANCH   5  53
ATOM     53  O3  IDS d 504     -18.723  50.079 175.335  0.00  0.00    -0.390 OA
ATOM     54  H   IDS d 504     -19.195  50.425 176.109  0.00  0.00     0.210 HD
ENDBRANCH   5  53
BRANCH   3  55
ATOM     55  C6  IDS d 504     -16.236  50.081 171.860  0.00  0.00     0.172 C 
ATOM     56  O62 IDS d 504     -16.914  49.358 171.127  0.00  0.00    -0.648 OA
BRANCH  55  57
ATOM     57  O61 IDS d 504     -15.119  50.402 171.475  0.00  0.00    -0.774 OA
ATOM     58  H   IDS d 504     -14.579  50.951 172.009  0.00  0.00     0.167 HD
ENDBRANCH  55  57
ENDBRANCH   3  55
BRANCH   6  59
ATOM     59  O4  IDS d 504     -15.271  49.282 174.642  0.00  0.00    -0.348 OA
BRANCH  59  60
ATOM     60  C1  SGN d 505     -14.952  47.923 174.770  0.00  0.00     0.282 C 
ATOM     61  C2  SGN d 505     -13.629  47.726 175.484  0.00  0.00     0.160 C 
ATOM     62  C3  SGN d 505     -12.463  48.264 174.632  0.00  0.00     0.173 C 
ATOM     63  C4  SGN d 505     -12.543  47.499 173.279  0.00  0.00     0.186 C 
ATOM     64  C5  SGN d 505     -13.882  47.808 172.692  0.00  0.00     0.181 C 
ATOM     65  O5  SGN d 505     -14.897  47.314 173.511  0.00  0.00    -0.349 OA
BRANCH  61  66
ATOM     66  N   SGN d 505     -13.724  48.284 176.853  0.00  0.00    -0.189 NA
ATOM     67  H   SGN d 505     -14.271  49.143 176.796  0.00  0.00     0.143 HD
BRANCH  66  68
ATOM     68  S1  SGN d 505     -14.423  47.322 178.034  0.00  0.00     0.183 S 
ATOM     69  O3S SGN d 505     -14.588  48.135 179.186  0.00  0.00    -0.582 OA
ATOM     70  O1S SGN d 505     -15.677  46.825 177.508  0.00  0.00    -0.582 OA
ATOM     71  O2S SGN d 505     -13.466  46.266 178.268  0.00  0.00    -0.582 OA
ENDBRANCH  66  68
ENDBRANCH  61  66
BRANCH  62  72
ATOM     72  O3  SGN d 505     -11.243  47.970 175.300  0.00  0.00    -0.391 OA
ATOM     73  H   SGN d 505     -11.179  47.014 175.450  0.00  0.00     0.210 HD
ENDBRANCH  62  72
BRANCH  63  74
ATOM     74  O4  SGN d 505     -11.597  47.885 172.304  0.00  0.00    -0.348 OA
BRANCH  74  75
ATOM     75  C1  IDS d 506     -10.548  48.756 172.556  0.00  0.00     0.294 C 
ATOM     76  C2  IDS d 506      -9.989  49.261 171.218  0.00  0.00     0.231 C 
ATOM     77  C3  IDS d 506      -8.612  49.968 171.354  0.00  0.00     0.185 C 
ATOM     78  C4  IDS d 506      -7.679  49.315 172.396  0.00  0.00     0.189 C 
ATOM     79  C5  IDS d 506      -8.475  48.845 173.618  0.00  0.00     0.253 C 
ATOM     80  O5  IDS d 506      -9.535  48.041 173.217  0.00  0.00    -0.340 OA
BRANCH  76  81
ATOM     81  O2  IDS d 506      -9.807  48.178 170.327  0.00  0.00    -0.244 OA
BRANCH  81  82
ATOM     82  S   IDS d 506      -9.644  48.220 168.747  0.00  0.00     0.252 S 
ATOM     83  O1S IDS d 506      -8.616  49.185 168.505  0.00  0.00    -0.572 OA
ATOM     84  O2S IDS d 506      -9.241  46.915 168.305  0.00  0.00    -0.572 OA
ATOM     85  O3S IDS d 506     -10.936  48.623 168.235  0.00  0.00    -0.572 OA
ENDBRANCH  81  82
ENDBRANCH  76  81
BRANCH  77  86
ATOM     86  O3  IDS d 506      -8.835  51.324 171.732  0.00  0.00    -0.390 OA
ATOM     87  H   IDS d 506      -9.421  51.748 171.085  0.00  0.00     0.210 HD
ENDBRANCH  77  86
BRANCH  78  88
ATOM     88  O4  IDS d 506      -7.066  48.210 171.774  0.00  0.00    -0.390 OA
ATOM     89  H   IDS d 506      -6.470  47.774 172.403  0.00  0.00     0.210 HD
ENDBRANCH  78  88
BRANCH  79  90
ATOM     90  C6  IDS d 506      -7.691  48.138 174.708  0.00  0.00     0.172 C 
ATOM     91  O61 IDS d 506      -8.165  47.157 175.264  0.00  0.00    -0.648 OA
BRANCH  90  92
ATOM     92  O62 IDS d 506      -6.593  48.525 175.069  0.00  0.00    -0.774 OA
ATOM     93  H   IDS d 506      -6.203  49.274 174.662  0.00  0.00     0.167 HD
ENDBRANCH  90  92
ENDBRANCH  79  90
ENDBRANCH  74  75
ENDBRANCH  63  74
BRANCH  64  94
ATOM     94  C6  SGN d 505     -14.085  47.183 171.350  0.00  0.00     0.227 C 
BRANCH  94  95
ATOM     95  O6  SGN d 505     -13.848  45.830 171.540  0.00  0.00    -0.254 OA
BRANCH  95  96
ATOM     96  S2  SGN d 505     -14.088  44.704 170.545  0.00  0.00     0.251 S 
ATOM     97  O6S SGN d 505     -14.505  45.325 169.295  0.00  0.00    -0.572 OA
ATOM     98  O4S SGN d 505     -12.813  44.032 170.436  0.00  0.00    -0.572 OA
ATOM     99  O5S SGN d 505     -15.133  43.910 171.142  0.00  0.00    -0.572 OA
ENDBRANCH  95  96
ENDBRANCH  94  95
ENDBRANCH  64  94
ENDBRANCH  59  60
ENDBRANCH   6  59
TORSDOF 37
