REMARK WARNING: 32 MAX_TORS EXCEEDED!!!
REMARK  59 active torsions:
REMARK  status: ('A' for Active; 'I' for Inactive)
REMARK    1  A    between atoms: S_1  and  O2_42 
REMARK    2  A    between atoms: C3_2  and  O3_17 
REMARK    3  A    between atoms: C3_3  and  O3_5 
REMARK    4  A    between atoms: C4_4  and  O1_47 
REMARK    5  A    between atoms: O6_6  and  C6_125 
REMARK    6  A    between atoms: O6_6  and  S2_82 
REMARK    7  A    between atoms: C5_9  and  C6_113 
REMARK    8  A    between atoms: S1_11  and  N_53 
REMARK    9  A    between atoms: N_13  and  C2_86 
REMARK   10  A    between atoms: N_13  and  S1_27 
REMARK   11  A    between atoms: O4_14  and  C1_85 
REMARK   12  A    between atoms: O4_14  and  C4_72 
REMARK   13  A    between atoms: O1_15  and  C1_95 
REMARK   14  A    between atoms: O1_15  and  C4_21 
REMARK   15  A    between atoms: O6_16  and  C6_104 
REMARK   16  A    between atoms: O6_16  and  S2_57 
REMARK   17  A    between atoms: C3_18  and  O3_114 
REMARK   18  A    between atoms: S_20  and  O2_45 
REMARK   19  A    between atoms: C4_22  and  O1_122 
REMARK   20  A    between atoms: C6_24  and  C5_100 
REMARK   21  A    between atoms: C6_24  and  O62_93 
REMARK   22  A    between atoms: C2_25  and  N_53 
REMARK   23  A    between atoms: C2_26  and  N_101 
REMARK   24  A    between atoms: O3_31  and  C3_102 
REMARK   25  A    between atoms: O1_32  and  C1_99 
REMARK   26  A    between atoms: S_34  and  O2_96 
REMARK   27  A    between atoms: C1_39  and  O4_75 
REMARK   28  A    between atoms: O3_40  and  C3_59 
REMARK   29  A    between atoms: O2_42  and  C2_120 
REMARK   30  A    between atoms: O2_45  and  C2_140 
REMARK   31  A    between atoms: C2_46  and  O2_54 
REMARK   32  A    between atoms: O1_47  and  C1_55 
REMARK   33  A    between atoms: O6_49  and  C6_92 
REMARK   34  A    between atoms: O6_49  and  S2_135 
REMARK   35  A    between atoms: C5_50  and  C6_104 
REMARK   36  A    between atoms: C4_51  and  O4_73 
REMARK   37  A    between atoms: C2_52  and  O2_96 
REMARK   38  A    between atoms: O2_54  and  S_112 
REMARK   39  A    between atoms: C3_60  and  O3_90 
REMARK   40  A    between atoms: O62_61  and  C6_113 
REMARK   41  A    between atoms: O3_65  and  C3_106 
REMARK   42  A    between atoms: C1_67  and  O4_115 
REMARK   43  A    between atoms: C1_68  and  O1_122 
REMARK   44  A    between atoms: C6_70  and  C5_110 
REMARK   45  A    between atoms: C6_70  and  O62_128 
REMARK   46  A    between atoms: O4_73  and  C1_76 
REMARK   47  A    between atoms: O4_75  and  C4_124 
REMARK   48  A    between atoms: C4_78  and  O4_115 
REMARK   49  A    between atoms: C6_79  and  C5_119 
REMARK   50  A    between atoms: C6_79  and  O62_111 
REMARK   51  A    between atoms: C3_81  and  O3_97 
REMARK   52  A    between atoms: C5_89  and  C6_92 
REMARK   53  A    between atoms: S2_91  and  O6_131 
REMARK   54  A    between atoms: C2_94  and  N_137 
REMARK   55  A    between atoms: N_101  and  S1_109 
REMARK   56  A    between atoms: C5_103  and  C6_139 
REMARK   57  A    between atoms: S1_121  and  N_137 
REMARK   58  A    between atoms: C6_125  and  C5_126 
REMARK   59  A    between atoms: O6_131  and  C6_139 
ROOT
ATOM      1  C4  IDS d 305      80.090  20.915 104.594  0.00  0.00     0.195 C 
ATOM      2  C2  IDS d 305      77.902  22.106 104.184  0.00  0.00     0.231 C 
ATOM      3  O5  IDS d 305      79.769  22.661 102.758  0.00  0.00    -0.340 OA
ATOM      4  C1  IDS d 305      78.343  22.598 102.788  0.00  0.00     0.294 C 
ATOM      5  C3  IDS d 305      78.570  20.798 104.651  0.00  0.00     0.185 C 
ATOM      6  C5  IDS d 305      80.460  21.546 103.265  0.00  0.00     0.253 C 
ENDROOT
BRANCH   1   7
ATOM      7  O1  SGN d 304      80.507  21.829 105.597  0.00  0.00    -0.348 OA
BRANCH   7   8
ATOM      8  C1  SGN d 304      81.558  21.436 106.450  0.00  0.00     0.282 C 
ATOM      9  C2  SGN d 304      81.501  22.296 107.718  0.00  0.00     0.160 C 
ATOM     10  C3  SGN d 304      81.747  23.755 107.381  0.00  0.00     0.173 C 
ATOM     11  C4  SGN d 304      83.127  23.856 106.733  0.00  0.00     0.186 C 
ATOM     12  C5  SGN d 304      83.109  23.016 105.462  0.00  0.00     0.181 C 
ATOM     13  O5  SGN d 304      82.825  21.647 105.816  0.00  0.00    -0.349 OA
BRANCH   9  14
ATOM     14  N   SGN d 304      80.154  22.210 108.204  0.00  0.00    -0.189 NA
ATOM     15  H   SGN d 304      79.530  22.338 107.407  0.00  0.00     0.143 HD
BRANCH  14  16
ATOM     16  S1  SGN d 304      79.692  20.719 109.004  0.00  0.00     0.183 S 
ATOM     17  O3S SGN d 304      80.698  20.366 109.953  0.00  0.00    -0.582 OA
ATOM     18  O1S SGN d 304      79.524  19.669 108.047  0.00  0.00    -0.582 OA
ATOM     19  O2S SGN d 304      78.469  20.955 109.671  0.00  0.00    -0.582 OA
ENDBRANCH  14  16
ENDBRANCH   9  14
BRANCH  10  20
ATOM     20  O3  SGN d 304      81.711  24.514 108.570  0.00  0.00    -0.391 OA
ATOM     21  H   SGN d 304      81.868  25.448 108.362  0.00  0.00     0.210 HD
ENDBRANCH  10  20
BRANCH  11  22
ATOM     22  O4  SGN d 304      83.367  25.205 106.393  0.00  0.00    -0.348 OA
BRANCH  22  23
ATOM     23  C1  IDS d 303      84.536  25.825 106.860  0.00  0.00     0.294 C 
ATOM     24  C2  IDS d 303      84.627  27.189 106.147  0.00  0.00     0.231 C 
ATOM     25  C3  IDS d 303      83.818  28.355 106.753  0.00  0.00     0.185 C 
ATOM     26  C4  IDS d 303      83.996  28.440 108.285  0.00  0.00     0.195 C 
ATOM     27  C5  IDS d 303      83.813  27.051 108.835  0.00  0.00     0.253 C 
ATOM     28  O5  IDS d 303      84.556  25.993 108.281  0.00  0.00    -0.340 OA
BRANCH  24  29
ATOM     29  O2  IDS d 303      85.943  27.567 105.958  0.00  0.00    -0.244 OA
BRANCH  29  30
ATOM     30  S   IDS d 303      86.464  27.468 104.288  0.00  0.00     0.252 S 
ATOM     31  O1S IDS d 303      87.352  26.350 104.183  0.00  0.00    -0.572 OA
ATOM     32  O2S IDS d 303      87.149  28.685 103.961  0.00  0.00    -0.572 OA
ATOM     33  O3S IDS d 303      85.286  27.270 103.468  0.00  0.00    -0.572 OA
ENDBRANCH  29  30
ENDBRANCH  24  29
BRANCH  25  34
ATOM     34  O3  IDS d 303      82.479  28.202 106.420  0.00  0.00    -0.390 OA
ATOM     35  H   IDS d 303      82.147  27.369 106.790  0.00  0.00     0.210 HD
ENDBRANCH  25  34
BRANCH  26  36
ATOM     36  O1  SGN d 302      85.336  28.797 108.607  0.00  0.00    -0.348 OA
BRANCH  36  37
ATOM     37  C1  SGN d 302      85.544  30.012 109.293  0.00  0.00     0.282 C 
ATOM     38  C2  SGN d 302      86.980  30.469 109.045  0.00  0.00     0.160 C 
ATOM     39  C3  SGN d 302      87.977  29.647 109.816  0.00  0.00     0.173 C 
ATOM     40  C4  SGN d 302      87.648  29.644 111.312  0.00  0.00     0.186 C 
ATOM     41  C5  SGN d 302      86.252  29.030 111.433  0.00  0.00     0.181 C 
ATOM     42  O5  SGN d 302      85.320  29.879 110.711  0.00  0.00    -0.349 OA
BRANCH  38  43
ATOM     43  N   SGN d 302      87.266  30.069 107.698  0.00  0.00    -0.189 NA
ATOM     44  H   SGN d 302      86.464  29.532 107.368  0.00  0.00     0.143 HD
BRANCH  43  45
ATOM     45  S1  SGN d 302      87.582  31.301 106.509  0.00  0.00     0.183 S 
ATOM     46  O3S SGN d 302      86.325  31.894 106.106  0.00  0.00    -0.582 OA
ATOM     47  O1S SGN d 302      88.253  30.698 105.384  0.00  0.00    -0.582 OA
ATOM     48  O2S SGN d 302      88.417  32.279 107.136  0.00  0.00    -0.582 OA
ENDBRANCH  43  45
ENDBRANCH  38  43
BRANCH  39  49
ATOM     49  O3  SGN d 302      89.255  30.179 109.543  0.00  0.00    -0.391 OA
ATOM     50  H   SGN d 302      89.416  30.159 108.587  0.00  0.00     0.210 HD
ENDBRANCH  39  49
BRANCH  40  51
ATOM     51  O4  SGN d 302      88.583  28.824 111.997  0.00  0.00    -0.348 OA
BRANCH  51  52
ATOM     52  C1  UAP d 301      89.695  29.398 112.682  0.00  0.00     0.294 C 
ATOM     53  C2  UAP d 301      90.219  28.287 113.582  0.00  0.00     0.228 C 
ATOM     54  C3  UAP d 301      90.946  27.112 112.925  0.00  0.00     0.156 C 
ATOM     55  C4  UAP d 301      91.754  27.465 111.652  0.00  0.00     0.077 C 
ATOM     56  C5  UAP d 301      91.599  28.911 111.202  0.00  0.00     0.224 C 
ATOM     57  O5  UAP d 301      90.709  29.845 111.772  0.00  0.00    -0.343 OA
BRANCH  53  58
ATOM     58  O2  UAP d 301      91.074  28.825 114.542  0.00  0.00    -0.244 OA
BRANCH  58  59
ATOM     59  S   UAP d 301      90.439  28.680 116.168  0.00  0.00     0.252 S 
ATOM     60  O2S UAP d 301      90.379  27.294 116.521  0.00  0.00    -0.572 OA
ATOM     61  O3S UAP d 301      89.143  29.305 116.174  0.00  0.00    -0.572 OA
ATOM     62  O1S UAP d 301      91.331  29.356 117.028  0.00  0.00    -0.572 OA
ENDBRANCH  58  59
ENDBRANCH  53  58
BRANCH  54  63
ATOM     63  O3  UAP d 301      89.993  26.161 112.613  0.00  0.00    -0.393 OA
ATOM     64  H   UAP d 301      89.362  26.532 111.977  0.00  0.00     0.210 HD
ENDBRANCH  54  63
BRANCH  56  65
ATOM     65  C6  UAP d 301      92.601  29.362 110.148  0.00  0.00     0.170 C 
ATOM     66  O61 UAP d 301      93.422  28.554 109.673  0.00  0.00    -0.648 OA
BRANCH  65  67
ATOM     67  O62 UAP d 301      92.562  30.567 109.836  0.00  0.00    -0.774 OA
ATOM     68  H   UAP d 301      91.923  31.131 110.225  0.00  0.00     0.167 HD
ENDBRANCH  65  67
ENDBRANCH  56  65
ENDBRANCH  51  52
ENDBRANCH  40  51
BRANCH  41  69
ATOM     69  C6  SGN d 302      85.740  28.878 112.866  0.00  0.00     0.227 C 
BRANCH  69  70
ATOM     70  O6  SGN d 302      86.570  29.558 113.790  0.00  0.00    -0.254 OA
BRANCH  70  71
ATOM     71  S2  SGN d 302      85.941  31.073 114.414  0.00  0.00     0.251 S 
ATOM     72  O6S SGN d 302      85.711  31.961 113.296  0.00  0.00    -0.572 OA
ATOM     73  O5S SGN d 302      84.689  30.805 115.073  0.00  0.00    -0.572 OA
ATOM     74  O4S SGN d 302      86.888  31.639 115.332  0.00  0.00    -0.572 OA
ENDBRANCH  70  71
ENDBRANCH  69  70
ENDBRANCH  41  69
ENDBRANCH  36  37
ENDBRANCH  26  36
BRANCH  27  75
ATOM     75  C6  IDS d 303      83.460  27.021 110.307  0.00  0.00     0.172 C 
ATOM     76  O61 IDS d 303      82.345  27.443 110.675  0.00  0.00    -0.648 OA
BRANCH  75  77
ATOM     77  O62 IDS d 303      84.304  26.509 111.072  0.00  0.00    -0.774 OA
ATOM     78  H   IDS d 303      85.125  26.211 110.732  0.00  0.00     0.167 HD
ENDBRANCH  75  77
ENDBRANCH  27  75
ENDBRANCH  22  23
ENDBRANCH  11  22
BRANCH  12  79
ATOM     79  C6  SGN d 304      84.437  23.055 104.739  0.00  0.00     0.227 C 
BRANCH  79  80
ATOM     80  O6  SGN d 304      85.190  21.894 105.071  0.00  0.00    -0.254 OA
BRANCH  80  81
ATOM     81  S2  SGN d 304      86.853  22.131 105.588  0.00  0.00     0.251 S 
ATOM     82  O4S SGN d 304      86.931  21.899 106.992  0.00  0.00    -0.572 OA
ATOM     83  O5S SGN d 304      87.273  23.479 105.279  0.00  0.00    -0.572 OA
ATOM     84  O6S SGN d 304      87.666  21.200 104.855  0.00  0.00    -0.572 OA
ENDBRANCH  80  81
ENDBRANCH  79  80
ENDBRANCH  12  79
ENDBRANCH   7   8
ENDBRANCH   1   7
BRANCH   5  85
ATOM     85  O3  IDS d 305      78.140  19.765 103.866  0.00  0.00    -0.390 OA
ATOM     86  H   IDS d 305      78.389  19.934 102.944  0.00  0.00     0.210 HD
ENDBRANCH   5  85
BRANCH   6  87
ATOM     87  C6  IDS d 305      81.835  21.221 102.762  0.00  0.00     0.172 C 
ATOM     88  O61 IDS d 305      82.239  20.045 102.789  0.00  0.00    -0.648 OA
BRANCH  87  89
ATOM     89  O62 IDS d 305      82.516  22.188 102.387  0.00  0.00    -0.774 OA
ATOM     90  H   IDS d 305      82.148  23.050 102.392  0.00  0.00     0.167 HD
ENDBRANCH  87  89
ENDBRANCH   6  87
BRANCH   2  91
ATOM     91  O2  IDS d 305      78.061  23.099 105.152  0.00  0.00    -0.244 OA
BRANCH  91  92
ATOM     92  S   IDS d 305      76.794  23.109 106.337  0.00  0.00     0.252 S 
ATOM     93  O1S IDS d 305      77.280  22.401 107.454  0.00  0.00    -0.572 OA
ATOM     94  O2S IDS d 305      75.642  22.473 105.788  0.00  0.00    -0.572 OA
ATOM     95  O3S IDS d 305      76.536  24.471 106.667  0.00  0.00    -0.572 OA
ENDBRANCH  91  92
ENDBRANCH   2  91
BRANCH   4  96
ATOM     96  O4  SGN d 306      77.851  21.619 101.919  0.00  0.00    -0.348 OA
BRANCH  96  97
ATOM     97  C4  SGN d 306      77.288  21.952 100.677  0.00  0.00     0.186 C 
ATOM     98  C3  SGN d 306      78.032  21.143  99.609  0.00  0.00     0.173 C 
ATOM     99  C2  SGN d 306      77.399  21.441  98.268  0.00  0.00     0.160 C 
ATOM    100  C1  SGN d 306      75.940  21.020  98.416  0.00  0.00     0.282 C 
ATOM    101  O5  SGN d 306      75.284  21.838  99.363  0.00  0.00    -0.349 OA
ATOM    102  C5  SGN d 306      75.801  21.551 100.672  0.00  0.00     0.181 C 
BRANCH  98 103
ATOM    103  O3  SGN d 306      79.398  21.513  99.581  0.00  0.00    -0.391 OA
ATOM    104  H   SGN d 306      79.473  22.459  99.381  0.00  0.00     0.210 HD
ENDBRANCH  98 103
BRANCH  99 105
ATOM    105  N   SGN d 306      78.017  20.505  97.368  0.00  0.00    -0.189 NA
ATOM    106  H   SGN d 306      77.285  19.873  97.043  0.00  0.00     0.143 HD
BRANCH 105 107
ATOM    107  S1  SGN d 306      78.843  21.123  95.936  0.00  0.00     0.183 S 
ATOM    108  O2S SGN d 306      78.825  20.069  94.973  0.00  0.00    -0.582 OA
ATOM    109  O1S SGN d 306      78.155  22.293  95.431  0.00  0.00    -0.582 OA
ATOM    110  O3S SGN d 306      80.207  21.447  96.268  0.00  0.00    -0.582 OA
ENDBRANCH 105 107
ENDBRANCH  99 105
BRANCH 100 111
ATOM    111  O1  SGN d 306      75.248  20.746  97.229  0.00  0.00    -0.348 OA
BRANCH 111 112
ATOM    112  C4  IDU d 307      75.112  19.348  96.886  0.00  0.00     0.195 C 
ATOM    113  C3  IDU d 307      74.332  19.161  95.582  0.00  0.00     0.185 C 
ATOM    114  C2  IDU d 307      72.830  19.354  95.858  0.00  0.00     0.231 C 
ATOM    115  C1  IDU d 307      72.279  18.240  96.784  0.00  0.00     0.294 C 
ATOM    116  O5  IDU d 307      72.976  18.382  98.036  0.00  0.00    -0.340 OA
ATOM    117  C5  IDU d 307      74.397  18.609  98.041  0.00  0.00     0.253 C 
BRANCH 113 118
ATOM    118  O3  IDU d 307      74.772  20.060  94.623  0.00  0.00    -0.390 OA
ATOM    119  H   IDU d 307      75.719  19.924  94.462  0.00  0.00     0.210 HD
ENDBRANCH 113 118
BRANCH 114 120
ATOM    120  O2  IDU d 307      72.130  19.379  94.635  0.00  0.00    -0.244 OA
BRANCH 120 121
ATOM    121  S   IDU d 307      71.964  20.971  93.893  0.00  0.00     0.252 S 
ATOM    122  O1S IDU d 307      72.890  21.048  92.810  0.00  0.00    -0.572 OA
ATOM    123  O2S IDU d 307      72.260  21.983  94.867  0.00  0.00    -0.572 OA
ATOM    124  O3S IDU d 307      70.607  21.050  93.419  0.00  0.00    -0.572 OA
ENDBRANCH 120 121
ENDBRANCH 114 120
BRANCH 115 125
ATOM    125  O4  SGN d 308      72.525  16.961  96.152  0.00  0.00    -0.348 OA
BRANCH 125 126
ATOM    126  C4  SGN d 308      71.568  15.862  96.155  0.00  0.00     0.186 C 
ATOM    127  C3  SGN d 308      71.230  15.425  97.579  0.00  0.00     0.173 C 
ATOM    128  C2  SGN d 308      70.280  14.238  97.428  0.00  0.00     0.160 C 
ATOM    129  C1  SGN d 308      68.960  14.597  96.723  0.00  0.00     0.278 C 
ATOM    130  O5  SGN d 308      69.275  15.192  95.432  0.00  0.00    -0.350 OA
ATOM    131  C5  SGN d 308      70.262  16.281  95.422  0.00  0.00     0.181 C 
BRANCH 127 132
ATOM    132  O3  SGN d 308      72.417  15.023  98.235  0.00  0.00    -0.391 OA
ATOM    133  H   SGN d 308      72.839  14.310  97.731  0.00  0.00     0.210 HD
ENDBRANCH 127 132
BRANCH 128 134
ATOM    134  N   SGN d 308      70.034  13.657  98.730  0.00  0.00    -0.189 NA
ATOM    135  H   SGN d 308      70.368  14.320  99.430  0.00  0.00     0.143 HD
BRANCH 134 136
ATOM    136  S1  SGN d 308      70.796  12.077  99.078  0.00  0.00     0.183 S 
ATOM    137  O1S SGN d 308      70.100  11.035  98.359  0.00  0.00    -0.582 OA
ATOM    138  O2S SGN d 308      70.702  11.861 100.491  0.00  0.00    -0.582 OA
ATOM    139  O3S SGN d 308      72.191  12.099  98.683  0.00  0.00    -0.582 OA
ENDBRANCH 134 136
ENDBRANCH 128 134
BRANCH 129 140
ATOM    140  O1  SGN d 308      68.182  15.458  97.550  0.00  0.00    -0.369 OA
ATOM    141  H   SGN d 308      68.000  15.017  98.395  0.00  0.00     0.212 HD
ENDBRANCH 129 140
BRANCH 131 142
ATOM    142  C6  SGN d 308      70.550  16.705  93.975  0.00  0.00     0.227 C 
BRANCH 142 143
ATOM    143  O6  SGN d 308      71.462  15.773  93.359  0.00  0.00    -0.254 OA
BRANCH 143 144
ATOM    144  S2  SGN d 308      73.069  16.345  92.814  0.00  0.00     0.251 S 
ATOM    145  O4S SGN d 308      72.974  17.692  92.335  0.00  0.00    -0.572 OA
ATOM    146  O5S SGN d 308      73.524  15.489  91.754  0.00  0.00    -0.572 OA
ATOM    147  O6S SGN d 308      73.995  16.251  93.919  0.00  0.00    -0.572 OA
ENDBRANCH 143 144
ENDBRANCH 142 143
ENDBRANCH 131 142
ENDBRANCH 125 126
ENDBRANCH 115 125
BRANCH 117 148
ATOM    148  C6  IDU d 307      75.279  17.508  98.595  0.00  0.00     0.172 C 
ATOM    149  O61 IDU d 307      75.561  16.537  97.871  0.00  0.00    -0.648 OA
BRANCH 148 150
ATOM    150  O62 IDU d 307      75.791  17.722  99.714  0.00  0.00    -0.774 OA
ATOM    151  H   IDU d 307      75.534  18.474 100.211  0.00  0.00     0.167 HD
ENDBRANCH 148 150
ENDBRANCH 117 148
ENDBRANCH 111 112
ENDBRANCH 100 111
BRANCH 102 152
ATOM    152  C6  SGN d 306      75.005  22.335 101.711  0.00  0.00     0.227 C 
BRANCH 152 153
ATOM    153  O6  SGN d 306      73.619  22.334 101.353  0.00  0.00    -0.254 OA
BRANCH 153 154
ATOM    154  S2  SGN d 306      72.546  21.070 102.013  0.00  0.00     0.251 S 
ATOM    155  O4S SGN d 306      71.559  20.739 101.017  0.00  0.00    -0.572 OA
ATOM    156  O5S SGN d 306      71.902  21.592 103.187  0.00  0.00    -0.572 OA
ATOM    157  O6S SGN d 306      73.333  19.905 102.380  0.00  0.00    -0.572 OA
ENDBRANCH 153 154
ENDBRANCH 152 153
ENDBRANCH 102 152
ENDBRANCH  96  97
ENDBRANCH   4  96
TORSDOF 59
