REMARK WARNING: 32 MAX_TORS EXCEEDED!!!
REMARK  42 active torsions:
REMARK  status: ('A' for Active; 'I' for Inactive)
REMARK    1  A    between atoms: C3_2  and  O3_89 
REMARK    2  A    between atoms: C5_3  and  C6_69 
REMARK    3  A    between atoms: N_4  and  C2_16 
REMARK    4  A    between atoms: N_4  and  S1_30 
REMARK    5  A    between atoms: S_5  and  O2_53 
REMARK    6  A    between atoms: C6_6  and  C5_24 
REMARK    7  A    between atoms: C6_6  and  O6_7 
REMARK    8  A    between atoms: O6_7  and  S2_43 
REMARK    9  A    between atoms: O4_10  and  C1_29 
REMARK   10  A    between atoms: O4_10  and  C4_56 
REMARK   11  A    between atoms: C2_11  and  N_61 
REMARK   12  A    between atoms: C6_13  and  C5_93 
REMARK   13  A    between atoms: C6_13  and  O6_65 
REMARK   14  A    between atoms: C1_14  and  O4_34 
REMARK   15  A    between atoms: C6_15  and  C5_82 
REMARK   16  A    between atoms: C6_15  and  O6_32 
REMARK   17  A    between atoms: C5_17  and  C6_36 
REMARK   18  A    between atoms: O2_18  and  C2_70 
REMARK   19  A    between atoms: C3_19  and  O3_51 
REMARK   20  A    between atoms: C2_20  and  O2_50 
REMARK   21  A    between atoms: C4_26  and  O4_41 
REMARK   22  A    between atoms: O6_32  and  S2_76 
REMARK   23  A    between atoms: S1_33  and  N_61 
REMARK   24  A    between atoms: O4_34  and  C4_80 
REMARK   25  A    between atoms: C2_35  and  N_60 
REMARK   26  A    between atoms: C6_36  and  O6A_49 
REMARK   27  A    between atoms: O4_37  and  C1_73 
REMARK   28  A    between atoms: O4_37  and  C4_55 
REMARK   29  A    between atoms: C3_38  and  O3_74 
REMARK   30  A    between atoms: O6A_39  and  C6_87 
REMARK   31  A    between atoms: C1_40  and  O4_41 
REMARK   32  A    between atoms: O4_42  and  C1_47 
REMARK   33  A    between atoms: O4_42  and  C4_63 
REMARK   34  A    between atoms: O3_44  and  C3_95 
REMARK   35  A    between atoms: O61_46  and  C6_69 
REMARK   36  A    between atoms: O3_52  and  C3_92 
REMARK   37  A    between atoms: O2_53  and  C2_86 
REMARK   38  A    between atoms: O3_58  and  C3_81 
REMARK       I    between atoms: N_60  and  C_67 
REMARK   39  A    between atoms: O6_65  and  S_68 
REMARK   40  A    between atoms: S_68  and  O8_77 
REMARK   41  A    between atoms: C5_71  and  C6_87 
REMARK   42  A    between atoms: C4_78  and  O4_79 
ROOT
ATOM      1  C2  SGN d   3      11.295   9.830  44.801  0.00  0.00     0.160 C 
ATOM      2  O5  SGN d   3      11.448  12.132  45.367  0.00  0.00    -0.349 OA
ATOM      3  C1  SGN d   3      10.520  11.071  45.255  0.00  0.00     0.282 C 
ATOM      4  C4  SGN d   3      13.324  10.698  45.978  0.00  0.00     0.186 C 
ATOM      5  C3  SGN d   3      12.428   9.488  45.764  0.00  0.00     0.173 C 
ATOM      6  C5  SGN d   3      12.440  11.890  46.347  0.00  0.00     0.181 C 
ENDROOT
BRANCH   3   7
ATOM      7  O4  IDS d   4       9.788  10.835  46.485  0.00  0.00    -0.348 OA
BRANCH   7   8
ATOM      8  C4  IDS d   4       9.050  11.961  46.859  0.00  0.00     0.195 C 
ATOM      9  C5  IDS d   4       8.816  12.004  48.345  0.00  0.00     0.253 C 
ATOM     10  O5  IDS d   4       7.840  11.117  48.737  0.00  0.00    -0.340 OA
ATOM     11  C1  IDS d   4       6.605  11.509  48.277  0.00  0.00     0.294 C 
ATOM     12  C2  IDS d   4       6.573  11.378  46.785  0.00  0.00     0.231 C 
ATOM     13  C3  IDS d   4       7.746  12.063  46.118  0.00  0.00     0.185 C 
BRANCH   9  14
ATOM     14  C6  IDS d   4      10.080  11.650  49.063  0.00  0.00     0.172 C 
ATOM     15  O62 IDS d   4      10.254  10.474  49.481  0.00  0.00    -0.648 OA
BRANCH  14  16
ATOM     16  O61 IDS d   4      10.974  12.517  49.242  0.00  0.00    -0.774 OA
ATOM     17  H   IDS d   4      10.847  13.392  48.932  0.00  0.00     0.167 HD
ENDBRANCH  14  16
ENDBRANCH   9  14
BRANCH  11  18
ATOM     18  O4  SGN d   5       6.196  12.844  48.665  0.00  0.00    -0.348 OA
BRANCH  18  19
ATOM     19  C4  SGN d   5       5.787  12.936  50.024  0.00  0.00     0.186 C 
ATOM     20  C3  SGN d   5       6.458  14.169  50.620  0.00  0.00     0.173 C 
ATOM     21  C2  SGN d   5       5.891  14.580  51.981  0.00  0.00     0.160 C 
ATOM     22  C1  SGN d   5       4.362  14.580  51.976  0.00  0.00     0.282 C 
ATOM     23  O5  SGN d   5       3.893  13.336  51.495  0.00  0.00    -0.349 OA
ATOM     24  C5  SGN d   5       4.271  13.087  50.144  0.00  0.00     0.181 C 
BRANCH  20  25
ATOM     25  O3  SGN d   5       7.843  13.948  50.740  0.00  0.00    -0.391 OA
ATOM     26  H   SGN d   5       8.001  13.215  51.355  0.00  0.00     0.210 HD
ENDBRANCH  20  25
BRANCH  21  27
ATOM     27  N   SGN d   5       6.402  15.907  52.271  0.00  0.00    -0.189 NA
ATOM     28  H   SGN d   5       5.742  16.564  51.855  0.00  0.00     0.143 HD
BRANCH  27  29
ATOM     29  S1  SGN d   5       6.654  16.415  53.766  0.00  0.00     0.183 S 
ATOM     30  O1S SGN d   5       7.335  17.703  53.686  0.00  0.00    -0.582 OA
ATOM     31  O2S SGN d   5       5.344  16.559  54.394  0.00  0.00    -0.582 OA
ATOM     32  O3S SGN d   5       7.478  15.389  54.397  0.00  0.00    -0.582 OA
ENDBRANCH  27  29
ENDBRANCH  21  27
BRANCH  22  33
ATOM     33  O4  BDP d   6       3.897  15.702  51.191  0.00  0.00    -0.348 OA
BRANCH  33  34
ATOM     34  C4  BDP d   6       2.552  15.972  51.391  0.00  0.00     0.195 C 
ATOM     35  C3  BDP d   6       2.416  17.044  52.421  0.00  0.00     0.181 C 
ATOM     36  C2  BDP d   6       1.043  17.621  52.447  0.00  0.00     0.173 C 
ATOM     37  C1  BDP d   6       0.580  17.988  51.080  0.00  0.00     0.203 C 
ATOM     38  O5  BDP d   6       0.656  16.870  50.276  0.00  0.00    -0.370 OA
ATOM     39  C5  BDP d   6       1.956  16.422  50.082  0.00  0.00     0.250 C 
BRANCH  35  40
ATOM     40  O3  BDP d   6       2.680  16.519  53.671  0.00  0.00    -0.390 OA
ATOM     41  H   BDP d   6       2.591  17.216  54.340  0.00  0.00     0.210 HD
ENDBRANCH  35  40
BRANCH  36  42
ATOM     42  O2  BDP d   6       1.044  18.761  53.227  0.00  0.00    -0.391 OA
ATOM     43  H   BDP d   6       1.649  19.415  52.843  0.00  0.00     0.210 HD
ENDBRANCH  36  42
BRANCH  39  44
ATOM     44  C6  BDP d   6       1.943  15.330  49.055  0.00  0.00     0.172 C 
ATOM     45  O6B BDP d   6       1.040  14.451  49.079  0.00  0.00    -0.648 OA
BRANCH  44  46
ATOM     46  O6A BDP d   6       2.831  15.298  48.164  0.00  0.00    -0.774 OA
ATOM     47  H   BDP d   6       3.502  15.952  48.147  0.00  0.00     0.167 HD
ENDBRANCH  44  46
ENDBRANCH  39  44
ENDBRANCH  33  34
ENDBRANCH  22  33
BRANCH  24  48
ATOM     48  C6  SGN d   5       3.523  11.866  49.618  0.00  0.00     0.227 C 
BRANCH  48  49
ATOM     49  O6  SGN d   5       3.730  10.761  50.470  0.00  0.00    -0.254 OA
BRANCH  49  50
ATOM     50  S2  SGN d   5       2.656   9.627  50.562  0.00  0.00     0.251 S 
ATOM     51  O6S SGN d   5       3.155   8.641  51.511  0.00  0.00    -0.572 OA
ATOM     52  O4S SGN d   5       1.415  10.249  51.020  0.00  0.00    -0.572 OA
ATOM     53  O5S SGN d   5       2.507   9.033  49.239  0.00  0.00    -0.572 OA
ENDBRANCH  49  50
ENDBRANCH  48  49
ENDBRANCH  24  48
ENDBRANCH  18  19
ENDBRANCH  11  18
BRANCH  12  54
ATOM     54  O2  IDS d   4       6.506  10.045  46.419  0.00  0.00    -0.244 OA
BRANCH  54  55
ATOM     55  S   IDS d   4       5.207   9.494  45.990  0.00  0.00     0.252 S 
ATOM     56  O1S IDS d   4       4.802  10.098  44.746  0.00  0.00    -0.572 OA
ATOM     57  O2S IDS d   4       5.406   8.047  45.835  0.00  0.00    -0.572 OA
ATOM     58  O3S IDS d   4       4.193   9.742  46.986  0.00  0.00    -0.572 OA
ENDBRANCH  54  55
ENDBRANCH  12  54
BRANCH  13  59
ATOM     59  O3  IDS d   4       7.425  13.400  45.985  0.00  0.00    -0.390 OA
ATOM     60  H   IDS d   4       7.297  13.791  46.864  0.00  0.00     0.210 HD
ENDBRANCH  13  59
ENDBRANCH   7   8
ENDBRANCH   3   7
BRANCH   1  61
ATOM     61  N   SGN d   3      10.419   8.682  44.650  0.00  0.00    -0.189 NA
ATOM     62  H   SGN d   3       9.773   8.683  45.439  0.00  0.00     0.143 HD
BRANCH  61  63
ATOM     63  S1  SGN d   3       9.546   8.599  43.315  0.00  0.00     0.183 S 
ATOM     64  O1S SGN d   3       8.636   9.730  43.295  0.00  0.00    -0.582 OA
ATOM     65  O2S SGN d   3      10.460   8.659  42.179  0.00  0.00    -0.582 OA
ATOM     66  O3S SGN d   3       8.848   7.318  43.392  0.00  0.00    -0.582 OA
ENDBRANCH  61  63
ENDBRANCH   1  61
BRANCH   5  67
ATOM     67  O3  SGN d   3      13.182   8.410  45.244  0.00  0.00    -0.391 OA
ATOM     68  H   SGN d   3      12.602   7.644  45.111  0.00  0.00     0.210 HD
ENDBRANCH   5  67
BRANCH   6  69
ATOM     69  C6  SGN d   3      13.246  13.171  46.522  0.00  0.00     0.227 C 
BRANCH  69  70
ATOM     70  O6  SGN d   3      13.930  13.491  45.331  0.00  0.00    -0.254 OA
BRANCH  70  71
ATOM     71  S2  SGN d   3      14.850  14.763  45.327  0.00  0.00     0.251 S 
ATOM     72  O4S SGN d   3      15.364  14.931  43.974  0.00  0.00    -0.572 OA
ATOM     73  O6S SGN d   3      15.914  14.526  46.295  0.00  0.00    -0.572 OA
ATOM     74  O5S SGN d   3      14.003  15.866  45.757  0.00  0.00    -0.572 OA
ENDBRANCH  70  71
ENDBRANCH  69  70
ENDBRANCH   6  69
BRANCH   4  75
ATOM     75  O4  SGN d   3      14.207  10.394  47.048  0.00  0.00    -0.348 OA
BRANCH  75  76
ATOM     76  C1  BDP d   2      15.563  10.840  46.835  0.00  0.00     0.292 C 
ATOM     77  C2  BDP d   2      16.253  11.041  48.150  0.00  0.00     0.204 C 
ATOM     78  C3  BDP d   2      17.617  11.603  47.952  0.00  0.00     0.183 C 
ATOM     79  C4  BDP d   2      18.404  10.804  46.968  0.00  0.00     0.195 C 
ATOM     80  C5  BDP d   2      17.559  10.500  45.751  0.00  0.00     0.253 C 
ATOM     81  O5  BDP d   2      16.325   9.946  46.100  0.00  0.00    -0.340 OA
BRANCH  77  82
ATOM     82  O2  BDP d   2      15.535  11.914  48.954  0.00  0.00    -0.388 OA
ATOM     83  H   BDP d   2      14.642  11.564  49.094  0.00  0.00     0.210 HD
ENDBRANCH  77  82
BRANCH  78  84
ATOM     84  O3  BDP d   2      18.254  11.604  49.179  0.00  0.00    -0.390 OA
ATOM     85  H   BDP d   2      18.313  10.695  49.514  0.00  0.00     0.210 HD
ENDBRANCH  78  84
BRANCH  79  86
ATOM     86  O4  BDP d   2      19.510  11.541  46.545  0.00  0.00    -0.348 OA
BRANCH  86  87
ATOM     87  C1  NGY d   1      20.653  11.449  47.427  0.00  0.00     0.286 C 
ATOM     88  O5  NGY d   1      21.521  10.418  47.121  0.00  0.00    -0.349 OA
ATOM     89  C5  NGY d   1      22.069  10.487  45.857  0.00  0.00     0.181 C 
ATOM     90  C4  NGY d   1      22.886  11.733  45.749  0.00  0.00     0.180 C 
ATOM     91  C3  NGY d   1      21.980  12.886  46.004  0.00  0.00     0.177 C 
ATOM     92  C2  NGY d   1      21.402  12.739  47.368  0.00  0.00     0.170 C 
BRANCH  89  93
ATOM     93  C6  NGY d   1      22.888   9.268  45.567  0.00  0.00     0.226 C 
BRANCH  93  94
ATOM     94  O6  NGY d   1      24.059   9.247  46.301  0.00  0.00    -0.261 OA
BRANCH  94  95
ATOM     95  S   NGY d   1      24.799   7.977  46.475  0.00  0.00     0.240 S 
ATOM     96  O9  NGY d   1      25.939   8.208  47.330  0.00  0.00    -0.579 OA
ATOM     97  O7  NGY d   1      25.246   7.477  45.201  0.00  0.00    -0.579 OA
BRANCH  95  98
ATOM     98  O8  NGY d   1      23.849   7.051  47.090  0.00  0.00    -0.274 OA
ATOM     99  H   NGY d   1      23.560   7.405  47.946  0.00  0.00     0.234 HD
ENDBRANCH  95  98
ENDBRANCH  94  95
ENDBRANCH  93  94
ENDBRANCH  89  93
BRANCH  90 100
ATOM    100  O4  NGY d   1      23.418  11.840  44.484  0.00  0.00    -0.390 OA
ATOM    101  H   NGY d   1      22.700  11.859  43.832  0.00  0.00     0.210 HD
ENDBRANCH  90 100
BRANCH  91 102
ATOM    102  O3  NGY d   1      22.675  14.072  45.904  0.00  0.00    -0.391 OA
ATOM    103  H   NGY d   1      22.074  14.814  46.072  0.00  0.00     0.210 HD
ENDBRANCH  91 102
BRANCH  92 104
ATOM    104  N   NGY d   1      20.501  13.824  47.610  0.00  0.00    -0.349 N 
ATOM    105  C   NGY d   1      20.895  14.920  48.437  0.00  0.00     0.214 C 
ATOM    106  O   NGY d   1      22.007  14.938  48.946  0.00  0.00    -0.274 OA
ATOM    107  CH3 NGY d   1      19.936  16.039  48.673  0.00  0.00     0.117 C 
ATOM    108  H   NGY d   1      19.604  13.815  47.204  0.00  0.00     0.163 HD
ENDBRANCH  92 104
ENDBRANCH  86  87
ENDBRANCH  79  86
BRANCH  80 109
ATOM    109  C6  BDP d   2      18.256   9.615  44.762  0.00  0.00     0.172 C 
ATOM    110  O6B BDP d   2      18.554   8.430  45.062  0.00  0.00    -0.648 OA
BRANCH 109 111
ATOM    111  O6A BDP d   2      18.528  10.055  43.617  0.00  0.00    -0.774 OA
ATOM    112  H   BDP d   2      18.308  10.937  43.389  0.00  0.00     0.167 HD
ENDBRANCH 109 111
ENDBRANCH  80 109
ENDBRANCH  75  76
ENDBRANCH   4  75
TORSDOF 42
