REMARK WARNING: 32 MAX_TORS EXCEEDED!!!
REMARK  39 active torsions:
REMARK  status: ('A' for Active; 'I' for Inactive)
REMARK    1  A    between atoms: C1_1  and  O3_41 
REMARK    2  A    between atoms: C4_3  and  O4_37 
REMARK    3  A    between atoms: C1_4  and  O1_80 
REMARK    4  A    between atoms: C2_5  and  O2_77 
REMARK    5  A    between atoms: O6_6  and  C6_56 
REMARK    6  A    between atoms: C2_7  and  N2_21 
REMARK       I    between atoms: C7_10  and  N2_92 
REMARK    7  A    between atoms: O4_11  and  C4_72 
REMARK    8  A    between atoms: O4_11  and  C1_55 
REMARK    9  A    between atoms: C3_14  and  O3_20 
REMARK   10  A    between atoms: C4_15  and  O4_22 
REMARK   11  A    between atoms: C4_18  and  O4_68 
REMARK   12  A    between atoms: O4_19  and  C4_69 
REMARK   13  A    between atoms: O3_20  and  C1_30 
REMARK       I    between atoms: N2_21  and  C7_61 
REMARK   14  A    between atoms: O4_22  and  C1_29 
REMARK   15  A    between atoms: C4_23  and  O4_73 
REMARK   16  A    between atoms: C5_24  and  C6_87 
REMARK   17  A    between atoms: C4_26  and  O4_48 
REMARK   18  A    between atoms: N2_28  and  C2_89 
REMARK       I    between atoms: N2_28  and  C7_40 
REMARK   19  A    between atoms: O6_31  and  C6_47 
REMARK   20  A    between atoms: O3_32  and  C3_60 
REMARK   21  A    between atoms: O3_34  and  C3_44 
REMARK   22  A    between atoms: C1_35  and  O3_53 
REMARK   23  A    between atoms: C1_36  and  O4_73 
REMARK   24  A    between atoms: C5_39  and  C6_76 
REMARK   25  A    between atoms: O3_41  and  C3_83 
REMARK   26  A    between atoms: O6_42  and  C6_50 
REMARK   27  A    between atoms: C2_43  and  O2_49 
REMARK   28  A    between atoms: C3_45  and  O3_82 
REMARK   29  A    between atoms: C3_46  and  O3_75 
REMARK   30  A    between atoms: C6_47  and  C5_58 
REMARK   31  A    between atoms: C6_50  and  C5_78 
REMARK   32  A    between atoms: C3_52  and  O3_53 
REMARK   33  A    between atoms: O6_54  and  C6_59 
REMARK   34  A    between atoms: C6_56  and  C5_74 
REMARK   35  A    between atoms: C6_59  and  C5_66 
REMARK   36  A    between atoms: C6_63  and  C5_70 
REMARK   37  A    between atoms: C2_67  and  N2_92 
REMARK   38  A    between atoms: C2_71  and  N2_84 
REMARK       I    between atoms: C7_81  and  N2_84 
REMARK   39  A    between atoms: O2_88  and  C2_91 
ROOT
ATOM      1  C1  BDP d1178      10.425 -11.339   8.777  0.00  0.00     0.292 C 
ATOM      2  C5  BDP d1178      11.104 -12.556   6.855  0.00  0.00     0.257 C 
ATOM      3  C3  BDP d1178      10.250 -10.169   6.633  0.00  0.00     0.183 C 
ATOM      4  O5  BDP d1178      11.351 -12.249   8.212  0.00  0.00    -0.340 OA
ATOM      5  C4  BDP d1178      11.112 -11.288   6.016  0.00  0.00     0.195 C 
ATOM      6  C2  BDP d1178      10.580  -9.999   8.089  0.00  0.00     0.204 C 
ENDROOT
BRANCH   1   7
ATOM      7  O3  NAG d1177      10.670 -11.123  10.174  0.00  0.00    -0.348 OA
BRANCH   7   8
ATOM      8  C3  NAG d1177      10.384 -12.253  10.952  0.00  0.00     0.183 C 
ATOM      9  C4  NAG d1177      11.615 -12.619  11.800  0.00  0.00     0.180 C 
ATOM     10  C5  NAG d1177      11.262 -13.623  12.886  0.00  0.00     0.179 C 
ATOM     11  O5  NAG d1177      10.174 -13.136  13.662  0.00  0.00    -0.349 OA
ATOM     12  C1  NAG d1177       8.992 -12.956  12.918  0.00  0.00     0.286 C 
ATOM     13  C2  NAG d1177       9.213 -11.887  11.849  0.00  0.00     0.171 C 
BRANCH   9  14
ATOM     14  O4  NAG d1177      12.642 -13.148  10.984  0.00  0.00    -0.390 OA
ATOM     15  H   NAG d1177      12.331 -13.963  10.560  0.00  0.00     0.210 HD
ENDBRANCH   9  14
BRANCH  10  16
ATOM     16  C6  NAG d1177      12.433 -13.918  13.838  0.00  0.00     0.198 C 
BRANCH  16  17
ATOM     17  O6  NAG d1177      12.818 -12.753  14.546  0.00  0.00    -0.398 OA
ATOM     18  H   NAG d1177      13.556 -12.964  15.139  0.00  0.00     0.209 HD
ENDBRANCH  16  17
ENDBRANCH  10  16
BRANCH  12  19
ATOM     19  O4  BDP d1176       7.901 -12.567  13.765  0.00  0.00    -0.348 OA
BRANCH  19  20
ATOM     20  C4  BDP d1176       7.296 -13.523  14.622  0.00  0.00     0.195 C 
ATOM     21  C3  BDP d1176       7.628 -13.300  16.107  0.00  0.00     0.183 C 
ATOM     22  C2  BDP d1176       6.818 -14.233  17.016  0.00  0.00     0.204 C 
ATOM     23  C1  BDP d1176       5.315 -14.207  16.731  0.00  0.00     0.292 C 
ATOM     24  O5  BDP d1176       5.100 -14.402  15.349  0.00  0.00    -0.340 OA
ATOM     25  C5  BDP d1176       5.772 -13.482  14.483  0.00  0.00     0.257 C 
BRANCH  21  26
ATOM     26  O3  BDP d1176       9.012 -13.490  16.376  0.00  0.00    -0.390 OA
ATOM     27  H   BDP d1176       9.255 -14.410  16.186  0.00  0.00     0.210 HD
ENDBRANCH  21  26
BRANCH  22  28
ATOM     28  O2  BDP d1176       7.014 -13.855  18.368  0.00  0.00    -0.388 OA
ATOM     29  H   BDP d1176       6.684 -12.953  18.503  0.00  0.00     0.210 HD
ENDBRANCH  22  28
BRANCH  23  30
ATOM     30  O3  NAG d1175       4.706 -15.282  17.480  0.00  0.00    -0.348 OA
BRANCH  30  31
ATOM     31  C3  NAG d1175       3.340 -15.138  17.816  0.00  0.00     0.183 C 
ATOM     32  C2  NAG d1175       3.151 -15.982  19.067  0.00  0.00     0.171 C 
ATOM     33  C1  NAG d1175       1.681 -15.899  19.453  0.00  0.00     0.282 C 
ATOM     34  O5  NAG d1175       0.867 -16.497  18.454  0.00  0.00    -0.349 OA
ATOM     35  C5  NAG d1175       0.950 -15.791  17.230  0.00  0.00     0.179 C 
ATOM     36  C4  NAG d1175       2.397 -15.683  16.734  0.00  0.00     0.180 C 
BRANCH  32  37
ATOM     37  N2  NAG d1175       3.967 -15.540  20.209  0.00  0.00    -0.349 N 
ATOM     38  C7  NAG d1175       5.232 -15.904  20.454  0.00  0.00     0.214 C 
ATOM     39  O7  NAG d1175       5.969 -15.238  21.198  0.00  0.00    -0.274 OA
ATOM     40  C8  NAG d1175       5.763 -17.146  19.814  0.00  0.00     0.117 C 
ATOM     41  H   NAG d1175       3.546 -14.922  20.849  0.00  0.00     0.163 HD
ENDBRANCH  32  37
BRANCH  33  42
ATOM     42  O1  NAG d1175       1.526 -16.597  20.656  0.00  0.00    -0.369 OA
ATOM     43  H   NAG d1175       1.802 -17.519  20.533  0.00  0.00     0.212 HD
ENDBRANCH  33  42
BRANCH  35  44
ATOM     44  C6  NAG d1175       0.077 -16.484  16.195  0.00  0.00     0.198 C 
BRANCH  44  45
ATOM     45  O6  NAG d1175      -1.269 -16.251  16.511  0.00  0.00    -0.398 OA
ATOM     46  H   NAG d1175      -1.835 -16.689  15.857  0.00  0.00     0.209 HD
ENDBRANCH  44  45
ENDBRANCH  35  44
BRANCH  36  47
ATOM     47  O4  NAG d1175       2.467 -14.929  15.523  0.00  0.00    -0.390 OA
ATOM     48  H   NAG d1175       2.163 -14.023  15.688  0.00  0.00     0.210 HD
ENDBRANCH  36  47
ENDBRANCH  30  31
ENDBRANCH  23  30
BRANCH  25  49
ATOM     49  C6  BDP d1176       5.352 -13.910  13.096  0.00  0.00     0.206 C 
ATOM     50  O6A BDP d1176       5.577 -15.096  12.735  0.00  0.00    -0.646 OA
ATOM     51  O6B BDP d1176       4.762 -13.054  12.384  0.00  0.00    -0.646 OA
ENDBRANCH  25  49
ENDBRANCH  19  20
ENDBRANCH  12  19
BRANCH  13  52
ATOM     52  N2  NAG d1177       7.954 -11.763  11.092  0.00  0.00    -0.349 N 
ATOM     53  C7  NAG d1177       7.319 -10.612  10.858  0.00  0.00     0.214 C 
ATOM     54  C8  NAG d1177       6.046 -10.812  10.077  0.00  0.00     0.117 C 
ATOM     55  O7  NAG d1177       7.700  -9.474  11.282  0.00  0.00    -0.274 OA
ATOM     56  H   NAG d1177       7.553 -12.588  10.733  0.00  0.00     0.163 HD
ENDBRANCH  13  52
ENDBRANCH   7   8
ENDBRANCH   1   7
BRANCH   6  57
ATOM     57  O2  BDP d1178       9.704  -9.055   8.649  0.00  0.00    -0.388 OA
ATOM     58  H   BDP d1178       9.911  -8.940   9.590  0.00  0.00     0.210 HD
ENDBRANCH   6  57
BRANCH   3  59
ATOM     59  O3  BDP d1178      10.590  -8.966   5.968  0.00  0.00    -0.390 OA
ATOM     60  H   BDP d1178      10.065  -8.236   6.332  0.00  0.00     0.210 HD
ENDBRANCH   3  59
BRANCH   2  61
ATOM     61  C6  BDP d1178      12.192 -13.527   6.378  0.00  0.00     0.206 C 
ATOM     62  O6A BDP d1178      13.321 -13.452   6.940  0.00  0.00    -0.646 OA
ATOM     63  O6B BDP d1178      11.912 -14.343   5.456  0.00  0.00    -0.646 OA
ENDBRANCH   2  61
BRANCH   5  64
ATOM     64  O4  BDP d1178      10.552 -11.537   4.748  0.00  0.00    -0.348 OA
BRANCH  64  65
ATOM     65  C1  NAG d1179      11.433 -11.643   3.626  0.00  0.00     0.286 C 
ATOM     66  O5  NAG d1179      11.653 -10.389   3.054  0.00  0.00    -0.349 OA
ATOM     67  C5  NAG d1179      12.503 -10.452   1.923  0.00  0.00     0.179 C 
ATOM     68  C4  NAG d1179      11.814 -11.211   0.792  0.00  0.00     0.180 C 
ATOM     69  C3  NAG d1179      11.401 -12.594   1.279  0.00  0.00     0.183 C 
ATOM     70  C2  NAG d1179      10.655 -12.483   2.619  0.00  0.00     0.171 C 
BRANCH  67  71
ATOM     71  C6  NAG d1179      12.829  -9.017   1.545  0.00  0.00     0.198 C 
BRANCH  71  72
ATOM     72  O6  NAG d1179      11.637  -8.270   1.409  0.00  0.00    -0.398 OA
ATOM     73  H   NAG d1179      11.854  -7.356   1.168  0.00  0.00     0.209 HD
ENDBRANCH  71  72
ENDBRANCH  67  71
BRANCH  68  74
ATOM     74  O4  NAG d1179      12.704 -11.344  -0.312  0.00  0.00    -0.390 OA
ATOM     75  H   NAG d1179      13.492 -11.837  -0.035  0.00  0.00     0.210 HD
ENDBRANCH  68  74
BRANCH  69  76
ATOM     76  O3  NAG d1179      10.557 -13.185   0.302  0.00  0.00    -0.348 OA
BRANCH  76  77
ATOM     77  C1  BDP d1180      11.090 -14.412  -0.216  0.00  0.00     0.292 C 
ATOM     78  O5  BDP d1180      12.095 -14.103  -1.150  0.00  0.00    -0.340 OA
ATOM     79  C5  BDP d1180      12.638 -15.244  -1.777  0.00  0.00     0.257 C 
ATOM     80  C4  BDP d1180      11.561 -15.929  -2.604  0.00  0.00     0.195 C 
ATOM     81  C3  BDP d1180      10.382 -16.335  -1.736  0.00  0.00     0.183 C 
ATOM     82  C2  BDP d1180       9.929 -15.174  -0.855  0.00  0.00     0.204 C 
BRANCH  79  83
ATOM     83  C6  BDP d1180      13.828 -14.802  -2.615  0.00  0.00     0.206 C 
ATOM     84  O6A BDP d1180      14.910 -15.397  -2.423  0.00  0.00    -0.646 OA
ATOM     85  O6B BDP d1180      13.655 -13.857  -3.428  0.00  0.00    -0.646 OA
ENDBRANCH  79  83
BRANCH  80  86
ATOM     86  O4  BDP d1180      12.095 -17.093  -3.174  0.00  0.00    -0.348 OA
BRANCH  86  87
ATOM     87  C1  NAG d1181      11.945 -17.124  -4.603  0.00  0.00     0.286 C 
ATOM     88  C2  NAG d1181      12.805 -18.311  -5.042  0.00  0.00     0.170 C 
ATOM     89  C3  NAG d1181      12.606 -18.629  -6.515  0.00  0.00     0.177 C 
ATOM     90  C4  NAG d1181      11.117 -18.904  -6.689  0.00  0.00     0.180 C 
ATOM     91  C5  NAG d1181      10.382 -17.592  -6.362  0.00  0.00     0.179 C 
ATOM     92  O5  NAG d1181      10.586 -17.273  -4.988  0.00  0.00    -0.349 OA
BRANCH  88  93
ATOM     93  N2  NAG d1181      14.203 -18.042  -4.752  0.00  0.00    -0.349 N 
ATOM     94  C7  NAG d1181      14.930 -18.787  -3.905  0.00  0.00     0.214 C 
ATOM     95  C8  NAG d1181      14.638 -20.259  -3.821  0.00  0.00     0.117 C 
ATOM     96  O7  NAG d1181      15.825 -18.310  -3.210  0.00  0.00    -0.274 OA
ATOM     97  H   NAG d1181      14.637 -17.278  -5.197  0.00  0.00     0.163 HD
ENDBRANCH  88  93
BRANCH  89  98
ATOM     98  O3  NAG d1181      13.409 -19.721  -6.932  0.00  0.00    -0.391 OA
ATOM     99  H   NAG d1181      14.345 -19.502  -6.803  0.00  0.00     0.210 HD
ENDBRANCH  89  98
BRANCH  90 100
ATOM    100  O4  NAG d1181      10.864 -19.374  -7.995  0.00  0.00    -0.390 OA
ATOM    101  H   NAG d1181      11.352 -20.199  -8.142  0.00  0.00     0.210 HD
ENDBRANCH  90 100
BRANCH  91 102
ATOM    102  C6  NAG d1181       8.886 -17.596  -6.708  0.00  0.00     0.198 C 
BRANCH 102 103
ATOM    103  O6  NAG d1181       8.101 -18.001  -5.605  0.00  0.00    -0.398 OA
ATOM    104  H   NAG d1181       7.164 -17.993  -5.855  0.00  0.00     0.209 HD
ENDBRANCH 102 103
ENDBRANCH  91 102
ENDBRANCH  86  87
ENDBRANCH  80  86
BRANCH  81 105
ATOM    105  O3  BDP d1180       9.309 -16.722  -2.576  0.00  0.00    -0.390 OA
ATOM    106  H   BDP d1180       9.053 -15.975  -3.139  0.00  0.00     0.210 HD
ENDBRANCH  81 105
BRANCH  82 107
ATOM    107  O2  BDP d1180       9.118 -15.697   0.175  0.00  0.00    -0.388 OA
ATOM    108  H   BDP d1180       9.637 -16.317   0.712  0.00  0.00     0.210 HD
ENDBRANCH  82 107
ENDBRANCH  76  77
ENDBRANCH  69  76
BRANCH  70 109
ATOM    109  N2  NAG d1179      10.349 -13.772   3.213  0.00  0.00    -0.349 N 
ATOM    110  C7  NAG d1179       9.134 -14.312   3.135  0.00  0.00     0.214 C 
ATOM    111  O7  NAG d1179       8.223 -13.848   2.457  0.00  0.00    -0.274 OA
ATOM    112  C8  NAG d1179       8.935 -15.560   3.927  0.00  0.00     0.117 C 
ATOM    113  H   NAG d1179      11.060 -14.261   3.687  0.00  0.00     0.163 HD
ENDBRANCH  70 109
ENDBRANCH  64  65
ENDBRANCH   5  64
TORSDOF 39
