REMARK WARNING: 32 MAX_TORS EXCEEDED!!!
REMARK  45 active torsions:
REMARK  status: ('A' for Active; 'I' for Inactive)
REMARK    1  A    between atoms: S_1  and  O2_2 
REMARK    2  A    between atoms: O2_2  and  C2_49 
REMARK    3  A    between atoms: C6_3  and  C5_21 
REMARK    4  A    between atoms: C6_3  and  O62_17 
REMARK    5  A    between atoms: O4_4  and  C4_77 
REMARK    6  A    between atoms: O4_4  and  C1_43 
REMARK    7  A    between atoms: C5_5  and  C6_66 
REMARK    8  A    between atoms: S1_7  and  N_44 
REMARK    9  A    between atoms: O4_8  and  C4_70 
REMARK   10  A    between atoms: O4_8  and  C1_63 
REMARK   11  A    between atoms: C3_10  and  O3_103 
REMARK   12  A    between atoms: C3_13  and  O3_50 
REMARK   13  A    between atoms: S2_14  and  O6_69 
REMARK   14  A    between atoms: S_15  and  O2_106 
REMARK   15  A    between atoms: S1_16  and  N_64 
REMARK   16  A    between atoms: C6_18  and  C5_25 
REMARK   17  A    between atoms: C6_18  and  O6_80 
REMARK   18  A    between atoms: S_22  and  O2_37 
REMARK   19  A    between atoms: O4_24  and  C4_101 
REMARK   20  A    between atoms: O4_24  and  C1_58 
REMARK   21  A    between atoms: C4_26  and  O4_41 
REMARK   22  A    between atoms: O3_27  and  C3_67 
REMARK   23  A    between atoms: C3_32  and  O3_82 
REMARK   24  A    between atoms: C5_33  and  C6_72 
REMARK   25  A    between atoms: O3_34  and  C3_91 
REMARK   26  A    between atoms: C2_35  and  N_65 
REMARK   27  A    between atoms: C5_36  and  C6_61 
REMARK   28  A    between atoms: O2_37  and  C2_99 
REMARK   29  A    between atoms: O6_39  and  C6_61 
REMARK   30  A    between atoms: O6_39  and  S2_92 
REMARK   31  A    between atoms: C1_42  and  O4_96 
REMARK   32  A    between atoms: N_44  and  C2_60 
REMARK   33  A    between atoms: C2_45  and  N_64 
REMARK   34  A    between atoms: S2_46  and  O6_80 
REMARK   35  A    between atoms: O1_51  and  C1_102 
REMARK   36  A    between atoms: O62_53  and  C6_66 
REMARK   37  A    between atoms: C3_56  and  O3_78 
REMARK   38  A    between atoms: C4_57  and  O4_96 
REMARK   39  A    between atoms: S1_59  and  N_65 
REMARK   40  A    between atoms: C5_62  and  C6_98 
REMARK   41  A    between atoms: C4_68  and  O4_97 
REMARK   42  A    between atoms: O6_69  and  C6_98 
REMARK   43  A    between atoms: C6_72  and  O62_90 
REMARK   44  A    between atoms: C1_75  and  O4_97 
REMARK   45  A    between atoms: C2_94  and  O2_106 
ROOT
ATOM      1  C3  SGN d 303     -24.716  55.068  10.980  0.00  0.00     0.173 C 
ATOM      2  C2  SGN d 303     -25.579  55.584   9.836  0.00  0.00     0.160 C 
ATOM      3  C1  SGN d 303     -27.032  55.610  10.259  0.00  0.00     0.282 C 
ATOM      4  C5  SGN d 303     -26.432  55.936  12.537  0.00  0.00     0.181 C 
ATOM      5  O5  SGN d 303     -27.155  56.416  11.410  0.00  0.00    -0.349 OA
ATOM      6  C4  SGN d 303     -24.935  55.898  12.250  0.00  0.00     0.186 C 
ENDROOT
BRANCH   6   7
ATOM      7  O4  SGN d 303     -24.301  55.264  13.326  0.00  0.00    -0.348 OA
BRANCH   7   8
ATOM      8  C1  IDS d 304     -23.591  56.093  14.186  0.00  0.00     0.294 C 
ATOM      9  C2  IDS d 304     -23.255  55.332  15.469  0.00  0.00     0.231 C 
ATOM     10  C3  IDS d 304     -22.063  54.358  15.360  0.00  0.00     0.185 C 
ATOM     11  C4  IDS d 304     -20.953  54.943  14.511  0.00  0.00     0.195 C 
ATOM     12  C5  IDS d 304     -21.492  55.619  13.243  0.00  0.00     0.253 C 
ATOM     13  O5  IDS d 304     -22.414  56.595  13.577  0.00  0.00    -0.340 OA
BRANCH   9  14
ATOM     14  O2  IDS d 304     -22.942  56.260  16.469  0.00  0.00    -0.244 OA
BRANCH  14  15
ATOM     15  S   IDS d 304     -23.945  57.059  17.308  0.00  0.00     0.252 S 
ATOM     16  O1S IDS d 304     -25.225  56.763  16.777  0.00  0.00    -0.572 OA
ATOM     17  O2S IDS d 304     -23.804  56.642  18.665  0.00  0.00    -0.572 OA
ATOM     18  O3S IDS d 304     -23.566  58.397  17.109  0.00  0.00    -0.572 OA
ENDBRANCH  14  15
ENDBRANCH   9  14
BRANCH  10  19
ATOM     19  O3  IDS d 304     -22.491  53.154  14.766  0.00  0.00    -0.390 OA
ATOM     20  H   IDS d 304     -22.824  53.335  13.873  0.00  0.00     0.210 HD
ENDBRANCH  10  19
BRANCH  11  21
ATOM     21  O4  IDS d 304     -20.271  55.869  15.293  0.00  0.00    -0.348 OA
BRANCH  21  22
ATOM     22  C1  SGN d 305     -19.101  55.326  15.824  0.00  0.00     0.282 C 
ATOM     23  C2  SGN d 305     -18.489  56.277  16.828  0.00  0.00     0.160 C 
ATOM     24  C3  SGN d 305     -18.041  57.512  16.120  0.00  0.00     0.173 C 
ATOM     25  C4  SGN d 305     -16.972  57.045  15.165  0.00  0.00     0.186 C 
ATOM     26  C5  SGN d 305     -17.689  56.188  14.173  0.00  0.00     0.181 C 
ATOM     27  O5  SGN d 305     -18.158  55.052  14.809  0.00  0.00    -0.349 OA
BRANCH  23  28
ATOM     28  N   SGN d 305     -19.427  56.541  17.879  0.00  0.00    -0.189 NA
ATOM     29  H   SGN d 305     -19.178  57.437  18.297  0.00  0.00     0.143 HD
BRANCH  28  30
ATOM     30  S1  SGN d 305     -19.511  55.449  19.073  0.00  0.00     0.183 S 
ATOM     31  O1S SGN d 305     -18.480  54.480  18.901  0.00  0.00    -0.582 OA
ATOM     32  O2S SGN d 305     -19.314  56.216  20.232  0.00  0.00    -0.582 OA
ATOM     33  O3S SGN d 305     -20.791  54.856  18.979  0.00  0.00    -0.582 OA
ENDBRANCH  28  30
ENDBRANCH  23  28
BRANCH  24  34
ATOM     34  O3  SGN d 305     -17.512  58.400  17.046  0.00  0.00    -0.391 OA
ATOM     35  H   SGN d 305     -16.786  57.972  17.527  0.00  0.00     0.210 HD
ENDBRANCH  24  34
BRANCH  25  36
ATOM     36  O4  SGN d 305     -16.421  58.115  14.488  0.00  0.00    -0.348 OA
BRANCH  36  37
ATOM     37  C1  IDS d 306     -15.107  57.912  14.029  0.00  0.00     0.294 C 
ATOM     38  O5  IDS d 306     -14.167  58.277  15.012  0.00  0.00    -0.340 OA
ATOM     39  C5  IDS d 306     -14.412  59.563  15.514  0.00  0.00     0.253 C 
ATOM     40  C4  IDS d 306     -14.098  60.625  14.435  0.00  0.00     0.189 C 
ATOM     41  C3  IDS d 306     -14.723  60.276  13.035  0.00  0.00     0.185 C 
ATOM     42  C2  IDS d 306     -14.906  58.758  12.791  0.00  0.00     0.231 C 
BRANCH  39  43
ATOM     43  C6  IDS d 306     -13.720  59.734  16.868  0.00  0.00     0.172 C 
ATOM     44  O61 IDS d 306     -13.559  58.768  17.608  0.00  0.00    -0.648 OA
BRANCH  43  45
ATOM     45  O62 IDS d 306     -13.334  60.832  17.252  0.00  0.00    -0.774 OA
ENDBRANCH  43  45
ENDBRANCH  39  43
BRANCH  40  47
ATOM     47  O4  IDS d 306     -12.690  60.674  14.271  0.00  0.00    -0.390 OA
ATOM     48  H   IDS d 306     -12.369  59.808  13.974  0.00  0.00     0.210 HD
ENDBRANCH  40  47
BRANCH  41  49
ATOM     49  O3  IDS d 306     -16.000  60.882  12.887  0.00  0.00    -0.390 OA
ATOM     50  H   IDS d 306     -15.923  61.838  13.034  0.00  0.00     0.210 HD
ENDBRANCH  41  49
BRANCH  42  51
ATOM     51  O2  IDS d 306     -13.771  58.332  12.117  0.00  0.00    -0.244 OA
BRANCH  51  52
ATOM     52  S   IDS d 306     -13.371  58.808  10.703  0.00  0.00     0.252 S 
ATOM     53  O1S IDS d 306     -14.637  59.182  10.094  0.00  0.00    -0.572 OA
ATOM     54  O2S IDS d 306     -12.485  59.941  10.889  0.00  0.00    -0.572 OA
ATOM     55  O3S IDS d 306     -12.722  57.676  10.075  0.00  0.00    -0.572 OA
ENDBRANCH  51  52
ENDBRANCH  42  51
ENDBRANCH  36  37
ENDBRANCH  25  36
BRANCH  26  56
ATOM     56  C6  SGN d 305     -16.862  55.732  13.025  0.00  0.00     0.227 C 
BRANCH  56  57
ATOM     57  O6  SGN d 305     -15.769  55.066  13.539  0.00  0.00    -0.254 OA
BRANCH  57  58
ATOM     58  S2  SGN d 305     -14.791  54.264  12.670  0.00  0.00     0.251 S 
ATOM     59  O6S SGN d 305     -15.587  53.795  11.541  0.00  0.00    -0.572 OA
ATOM     60  O4S SGN d 305     -13.769  55.218  12.318  0.00  0.00    -0.572 OA
ATOM     61  O5S SGN d 305     -14.312  53.176  13.490  0.00  0.00    -0.572 OA
ENDBRANCH  57  58
ENDBRANCH  56  57
ENDBRANCH  26  56
ENDBRANCH  21  22
ENDBRANCH  11  21
BRANCH  12  62
ATOM     62  C6  IDS d 304     -20.438  56.205  12.318  0.00  0.00     0.172 C 
ATOM     63  O61 IDS d 304     -20.186  57.380  12.300  0.00  0.00    -0.648 OA
BRANCH  62  64
ATOM     64  O62 IDS d 304     -19.804  55.514  11.583  0.00  0.00    -0.774 OA
ENDBRANCH  62  64
ENDBRANCH  12  62
ENDBRANCH   7   8
ENDBRANCH   6   7
BRANCH   1  66
ATOM     66  O3  SGN d 303     -23.357  55.165  10.611  0.00  0.00    -0.391 OA
ATOM     67  H   SGN d 303     -23.134  56.093  10.438  0.00  0.00     0.210 HD
ENDBRANCH   1  66
BRANCH   4  68
ATOM     68  C6  SGN d 303     -26.793  56.839  13.703  0.00  0.00     0.227 C 
BRANCH  68  69
ATOM     69  O6  SGN d 303     -26.166  58.058  13.448  0.00  0.00    -0.254 OA
BRANCH  69  70
ATOM     70  S2  SGN d 303     -26.643  59.464  13.842  0.00  0.00     0.251 S 
ATOM     71  O4S SGN d 303     -26.775  59.481  15.259  0.00  0.00    -0.572 OA
ATOM     72  O5S SGN d 303     -25.607  60.334  13.381  0.00  0.00    -0.572 OA
ATOM     73  O6S SGN d 303     -27.901  59.641  13.205  0.00  0.00    -0.572 OA
ENDBRANCH  69  70
ENDBRANCH  68  69
ENDBRANCH   4  68
BRANCH   2  74
ATOM     74  N   SGN d 303     -25.418  54.745   8.661  0.00  0.00    -0.189 NA
ATOM     75  H   SGN d 303     -24.418  54.569   8.560  0.00  0.00     0.143 HD
BRANCH  74  76
ATOM     76  S1  SGN d 303     -25.956  55.261   7.204  0.00  0.00     0.183 S 
ATOM     77  O1S SGN d 303     -27.188  55.969   7.408  0.00  0.00    -0.582 OA
ATOM     78  O2S SGN d 303     -24.939  56.125   6.682  0.00  0.00    -0.582 OA
ATOM     79  O3S SGN d 303     -26.123  54.060   6.441  0.00  0.00    -0.582 OA
ENDBRANCH  74  76
ENDBRANCH   2  74
BRANCH   3  80
ATOM     80  O4  IDS d 302     -27.507  54.294  10.460  0.00  0.00    -0.348 OA
BRANCH  80  81
ATOM     81  C4  IDS d 302     -28.906  54.140  10.376  0.00  0.00     0.195 C 
ATOM     82  C5  IDS d 302     -29.418  53.605  11.676  0.00  0.00     0.253 C 
ATOM     83  O5  IDS d 302     -28.803  52.357  11.947  0.00  0.00    -0.340 OA
ATOM     84  C1  IDS d 302     -29.181  51.323  11.055  0.00  0.00     0.294 C 
ATOM     85  C2  IDS d 302     -28.860  51.716   9.644  0.00  0.00     0.231 C 
ATOM     86  C3  IDS d 302     -29.276  53.144   9.294  0.00  0.00     0.185 C 
BRANCH  82  87
ATOM     87  C6  IDS d 302     -29.284  54.585  12.839  0.00  0.00     0.172 C 
ATOM     88  O61 IDS d 302     -28.700  54.264  13.873  0.00  0.00    -0.648 OA
BRANCH  87  89
ATOM     89  O62 IDS d 302     -29.767  55.722  12.756  0.00  0.00    -0.774 OA
ENDBRANCH  87  89
ENDBRANCH  82  87
BRANCH  84  91
ATOM     91  O4  SGN d 301     -30.536  51.013  11.159  0.00  0.00    -0.348 OA
BRANCH  91  92
ATOM     92  C4  SGN d 301     -30.887  50.280  12.311  0.00  0.00     0.186 C 
ATOM     93  C3  SGN d 301     -31.882  51.094  13.181  0.00  0.00     0.173 C 
ATOM     94  C2  SGN d 301     -32.239  50.227  14.390  0.00  0.00     0.160 C 
ATOM     95  C1  SGN d 301     -32.958  48.997  13.859  0.00  0.00     0.278 C 
ATOM     96  O5  SGN d 301     -32.094  48.252  13.019  0.00  0.00    -0.350 OA
ATOM     97  C5  SGN d 301     -31.628  48.981  11.881  0.00  0.00     0.181 C 
BRANCH  93  98
ATOM     98  O3  SGN d 301     -31.267  52.276  13.620  0.00  0.00    -0.391 OA
ATOM     99  H   SGN d 301     -30.472  52.056  14.130  0.00  0.00     0.210 HD
ENDBRANCH  93  98
BRANCH  94 100
ATOM    100  N   SGN d 301     -33.066  50.920  15.389  0.00  0.00    -0.189 NA
ATOM    101  H   SGN d 301     -34.041  50.707  15.177  0.00  0.00     0.143 HD
BRANCH 100 102
ATOM    102  S1  SGN d 301     -32.819  50.559  16.988  0.00  0.00     0.183 S 
ATOM    103  O2S SGN d 301     -32.484  51.801  17.640  0.00  0.00    -0.582 OA
ATOM    104  O3S SGN d 301     -34.059  49.991  17.460  0.00  0.00    -0.582 OA
ATOM    105  O1S SGN d 301     -31.737  49.599  17.059  0.00  0.00    -0.582 OA
ENDBRANCH 100 102
ENDBRANCH  94 100
BRANCH  95 106
ATOM    106  O1  SGN d 301     -34.132  49.414  13.121  0.00  0.00    -0.369 OA
ATOM    107  H   SGN d 301     -34.594  48.632  12.780  0.00  0.00     0.212 HD
ENDBRANCH  95 106
BRANCH  97 108
ATOM    108  C6  SGN d 301     -30.811  47.992  11.052  0.00  0.00     0.227 C 
BRANCH 108 109
ATOM    109  O6  SGN d 301     -29.745  47.503  11.829  0.00  0.00    -0.254 OA
BRANCH 109 110
ATOM    110  S2  SGN d 301     -28.662  46.467  11.349  0.00  0.00     0.251 S 
ATOM    111  O4S SGN d 301     -28.348  46.829   9.981  0.00  0.00    -0.572 OA
ATOM    112  O5S SGN d 301     -27.527  46.620  12.235  0.00  0.00    -0.572 OA
ATOM    113  O6S SGN d 301     -29.297  45.170  11.447  0.00  0.00    -0.572 OA
ENDBRANCH 109 110
ENDBRANCH 108 109
ENDBRANCH  97 108
ENDBRANCH  91  92
ENDBRANCH  84  91
BRANCH  85 114
ATOM    114  O2  IDS d 302     -27.506  51.637   9.476  0.00  0.00    -0.244 OA
BRANCH 114 115
ATOM    115  S   IDS d 302     -26.743  50.669   8.569  0.00  0.00     0.252 S 
ATOM    116  O1S IDS d 302     -27.336  50.827   7.283  0.00  0.00    -0.572 OA
ATOM    117  O2S IDS d 302     -25.380  51.074   8.630  0.00  0.00    -0.572 OA
ATOM    118  O3S IDS d 302     -26.948  49.374   9.110  0.00  0.00    -0.572 OA
ENDBRANCH 114 115
ENDBRANCH  85 114
BRANCH  86 119
ATOM    119  O3  IDS d 302     -30.672  53.167   9.153  0.00  0.00    -0.390 OA
ATOM    120  H   IDS d 302     -30.938  52.537   8.465  0.00  0.00     0.210 HD
ENDBRANCH  86 119
ENDBRANCH  80  81
ENDBRANCH   3  80
TORSDOF 45
