REMARK WARNING: 32 MAX_TORS EXCEEDED!!!
REMARK  130 active torsions:
REMARK  status: ('A' for Active; 'I' for Inactive)
REMARK    1  A    between atoms: C3_1  and  O3_48 
REMARK    2  A    between atoms: C1_2  and  O1_84 
REMARK    3  A    between atoms: C4_3  and  O1_174 
REMARK    4  A    between atoms: O2_6  and  C2_75 
REMARK    5  A    between atoms: C2_7  and  O2_15 
REMARK    6  A    between atoms: O6_9  and  C6_271 
REMARK    7  A    between atoms: C4_10  and  O1_237 
REMARK    8  A    between atoms: O1_12  and  C1_204 
REMARK    9  A    between atoms: O1_12  and  C4_161 
REMARK   10  A    between atoms: O2_13  and  C2_251 
REMARK   11  A    between atoms: O2_13  and  S2_201 
REMARK   12  A    between atoms: C4_17  and  O1_227 
REMARK   13  A    between atoms: C6_18  and  C5_224 
REMARK   14  A    between atoms: C6_18  and  O48_261 
REMARK   15  A    between atoms: C6_20  and  O6_42 
REMARK   16  A    between atoms: C6_20  and  C5_103 
REMARK   17  A    between atoms: O6_21  and  C6_150 
REMARK   18  A    between atoms: O6_21  and  S6_49 
REMARK   19  A    between atoms: C1_24  and  O1_155 
REMARK   20  A    between atoms: C3_25  and  O3_240 
REMARK   21  A    between atoms: C1_26  and  O1_174 
REMARK   22  A    between atoms: C1_27  and  O1_227 
REMARK   23  A    between atoms: C4_28  and  O1_98 
REMARK   24  A    between atoms: O3_29  and  C3_95 
REMARK   25  A    between atoms: C2_30  and  O2_148 
REMARK   26  A    between atoms: O1_31  and  C1_252 
REMARK   27  A    between atoms: O1_31  and  C4_173 
REMARK   28  A    between atoms: S3_37  and  O3_91 
REMARK   29  A    between atoms: S3_37  and  O27_267 
REMARK   30  A    between atoms: O3_41  and  C3_69 
REMARK   31  A    between atoms: C1_44  and  O1_64 
REMARK   32  A    between atoms: C4_45  and  O1_56 
REMARK   33  A    between atoms: O12_47  and  S2_97 
REMARK   34  A    between atoms: S6_49  and  O33_213 
REMARK   35  A    between atoms: C3_50  and  O3_118 
REMARK   36  A    between atoms: O1_53  and  C1_130 
REMARK   37  A    between atoms: C1_54  and  O1_193 
REMARK   38  A    between atoms: O1_56  and  C1_269 
REMARK   39  A    between atoms: C3_58  and  O3_73 
REMARK   40  A    between atoms: O3_59  and  C3_191 
REMARK   41  A    between atoms: C6_61  and  C5_270 
REMARK   42  A    between atoms: C6_61  and  O6_154 
REMARK   43  A    between atoms: S2_62  and  O2_148 
REMARK   44  A    between atoms: S2_62  and  O13_83 
REMARK   45  A    between atoms: O1_64  and  C4_159 
REMARK   46  A    between atoms: C5_66  and  C6_257 
REMARK   47  A    between atoms: O6_67  and  C6_256 
REMARK   48  A    between atoms: O6_67  and  S6_255 
REMARK   49  A    between atoms: O2_68  and  C2_214 
REMARK   50  A    between atoms: O3_70  and  C3_147 
REMARK   51  A    between atoms: S3_71  and  O3_226 
REMARK   52  A    between atoms: S3_71  and  O16_223 
REMARK   53  A    between atoms: C1_72  and  O1_253 
REMARK   54  A    between atoms: O2_76  and  C2_165 
REMARK   55  A    between atoms: C1_78  and  O1_153 
REMARK   56  A    between atoms: S6_79  and  O6_182 
REMARK   57  A    between atoms: S6_79  and  O19_245 
REMARK   58  A    between atoms: C6_81  and  C5_221 
REMARK   59  A    between atoms: C6_81  and  O6_230 
REMARK   60  A    between atoms: O6_82  and  C6_176 
REMARK   61  A    between atoms: O1_84  and  C4_87 
REMARK   62  A    between atoms: C6_88  and  O6_268 
REMARK   63  A    between atoms: C6_88  and  C5_93 
REMARK   64  A    between atoms: O54_90  and  S2_201 
REMARK   65  A    between atoms: O3_91  and  C3_274 
REMARK   66  A    between atoms: C5_96  and  C6_265 
REMARK   67  A    between atoms: S2_97  and  O2_199 
REMARK   68  A    between atoms: O1_98  and  C1_249 
REMARK   69  A    between atoms: O3_99  and  C3_262 
REMARK   70  A    between atoms: O14_104  and  S2_211 
REMARK   71  A    between atoms: C2_105  and  O2_141 
REMARK   72  A    between atoms: C4_107  and  O4_276 
REMARK   73  A    between atoms: S6_108  and  O6_139 
REMARK   74  A    between atoms: S6_108  and  O21_243 
REMARK   75  A    between atoms: C5_109  and  C6_256 
REMARK   76  A    between atoms: C2_110  and  O2_272 
REMARK   77  A    between atoms: O1_111  and  C1_220 
REMARK   78  A    between atoms: O1_111  and  C4_266 
REMARK   79  A    between atoms: O2_112  and  C2_184 
REMARK   80  A    between atoms: C6_113  and  O6_225 
REMARK   81  A    between atoms: C6_113  and  C5_232 
REMARK   82  A    between atoms: O2_114  and  C2_207 
REMARK   83  A    between atoms: O2_115  and  C2_273 
REMARK   84  A    between atoms: C3_119  and  O3_212 
REMARK   85  A    between atoms: C2_120  and  O2_131 
REMARK   86  A    between atoms: C2_123  and  O2_195 
REMARK   87  A    between atoms: C1_124  and  O1_237 
REMARK   88  A    between atoms: O2_129  and  C2_236 
REMARK   89  A    between atoms: O3_134  and  C3_168 
REMARK   90  A    between atoms: O3_134  and  S3_172 
REMARK   91  A    between atoms: S6_135  and  O6_228 
REMARK   92  A    between atoms: S6_135  and  O33_248 
REMARK   93  A    between atoms: C4_136  and  O1_153 
REMARK   94  A    between atoms: C4_137  and  O1_205 
REMARK   95  A    between atoms: C6_138  and  C5_222 
REMARK   96  A    between atoms: C6_138  and  O6_182 
REMARK   97  A    between atoms: O6_139  and  C6_189 
REMARK   98  A    between atoms: S6_143  and  O51_170 
REMARK   99  A    between atoms: S6_143  and  O6_225 
REMARK  100  A    between atoms: C3_145  and  O3_278 
REMARK  101  A    between atoms: O3_149  and  C3_171 
REMARK  102  A    between atoms: C6_150  and  C5_200 
REMARK  103  A    between atoms: O1_155  and  C4_219 
REMARK  104  A    between atoms: C5_158  and  C6_176 
REMARK  105  A    between atoms: C6_163  and  C5_203 
REMARK  106  A    between atoms: C6_163  and  O6_218 
REMARK  107  A    between atoms: C5_167  and  C6_271 
REMARK  108  A    between atoms: C2_169  and  O2_199 
REMARK  109  A    between atoms: S3_172  and  O25_238 
REMARK  110  A    between atoms: C3_175  and  O3_187 
REMARK  111  A    between atoms: C6_178  and  C5_260 
REMARK  112  A    between atoms: C6_178  and  O6_228 
REMARK  113  A    between atoms: O37_179  and  C6_257 
REMARK  114  A    between atoms: C4_180  and  O1_193 
REMARK  115  A    between atoms: C2_185  and  O2_216 
REMARK  116  A    between atoms: O29_188  and  S6_209 
REMARK  117  A    between atoms: C6_189  and  C5_196 
REMARK  118  A    between atoms: O18_194  and  S3_215 
REMARK  119  A    between atoms: C4_197  and  O1_253 
REMARK  120  A    between atoms: O24_198  and  S2_264 
REMARK  121  A    between atoms: O6_202  and  C6_265 
REMARK  122  A    between atoms: O6_202  and  S6_209 
REMARK  123  A    between atoms: O1_205  and  C1_241 
REMARK  124  A    between atoms: S4_208  and  O4_276 
REMARK  125  A    between atoms: S4_208  and  O26_244 
REMARK  126  A    between atoms: S2_211  and  O2_272 
REMARK  127  A    between atoms: O3_212  and  S3_215 
REMARK  128  A    between atoms: O2_216  and  S2_264 
REMARK  129  A    between atoms: O3_226  and  C3_250 
REMARK  130  A    between atoms: O19_239  and  S6_255 
ROOT
ATOM      1  C1  GU9 d 440      57.236  -4.901  11.105  0.00  0.00     0.292 C 
ATOM      2  C4  GU9 d 440      56.485  -3.846  13.688  0.00  0.00     0.187 C 
ATOM      3  C3  GU9 d 440      56.200  -5.294  13.309  0.00  0.00     0.186 C 
ATOM      4  O5  GU9 d 440      57.600  -3.574  11.522  0.00  0.00    -0.348 OA
ATOM      5  C5  GU9 d 440      56.641  -3.003  12.429  0.00  0.00     0.180 C 
ATOM      6  C2  GU9 d 440      57.241  -5.812  12.326  0.00  0.00     0.207 C 
ENDROOT
BRANCH   2   7
ATOM      7  O1  GU8 d 439      55.412  -3.307  14.476  0.00  0.00    -0.348 OA
BRANCH   7   8
ATOM      8  C1  GU8 d 439      55.795  -3.146  15.850  0.00  0.00     0.292 C 
ATOM      9  O5  GU8 d 439      55.618  -4.386  16.554  0.00  0.00    -0.348 OA
ATOM     10  C5  GU8 d 439      56.023  -4.284  17.929  0.00  0.00     0.180 C 
ATOM     11  C4  GU8 d 439      55.165  -3.258  18.656  0.00  0.00     0.187 C 
ATOM     12  C3  GU8 d 439      55.330  -1.924  17.940  0.00  0.00     0.186 C 
ATOM     13  C2  GU8 d 439      54.930  -2.061  16.476  0.00  0.00     0.207 C 
BRANCH  10  14
ATOM     14  C6  GU8 d 439      55.924  -5.661  18.567  0.00  0.00     0.201 C 
BRANCH  14  15
ATOM     15  O6  GU8 d 439      54.583  -6.158  18.456  0.00  0.00    -0.393 OA
ATOM     16  C9  GU8 d 439      54.622  -7.579  18.302  0.00  0.00     0.201 C 
ENDBRANCH  14  15
ENDBRANCH  10  14
BRANCH  11  17
ATOM     17  O1  GU9 d 438      55.640  -3.168  20.009  0.00  0.00    -0.348 OA
BRANCH  17  18
ATOM     18  C1  GU9 d 438      54.783  -2.403  20.873  0.00  0.00     0.292 C 
ATOM     19  O5  GU9 d 438      53.604  -3.145  21.233  0.00  0.00    -0.348 OA
ATOM     20  C5  GU9 d 438      53.894  -4.412  21.850  0.00  0.00     0.180 C 
ATOM     21  C4  GU9 d 438      54.768  -4.221  23.094  0.00  0.00     0.187 C 
ATOM     22  C3  GU9 d 438      56.000  -3.368  22.776  0.00  0.00     0.186 C 
ATOM     23  C2  GU9 d 438      55.573  -2.058  22.128  0.00  0.00     0.207 C 
BRANCH  20  24
ATOM     24  C6  GU9 d 438      52.601  -5.045  22.339  0.00  0.00     0.201 C 
BRANCH  24  25
ATOM     25  O6  GU9 d 438      51.654  -5.194  21.273  0.00  0.00    -0.393 OA
ATOM     26  C9  GU9 d 438      50.431  -5.701  21.813  0.00  0.00     0.201 C 
ENDBRANCH  24  25
ENDBRANCH  20  24
BRANCH  21  27
ATOM     27  O1  GU8 d 437      55.330  -5.455  23.423  0.00  0.00    -0.348 OA
BRANCH  27  28
ATOM     28  C1  GU8 d 437      54.616  -6.045  24.511  0.00  0.00     0.292 C 
ATOM     29  C2  GU8 d 437      54.879  -7.539  24.603  0.00  0.00     0.207 C 
ATOM     30  C3  GU8 d 437      53.976  -8.045  25.718  0.00  0.00     0.186 C 
ATOM     31  C4  GU8 d 437      54.188  -7.314  27.039  0.00  0.00     0.187 C 
ATOM     32  C5  GU8 d 437      54.112  -5.809  26.812  0.00  0.00     0.180 C 
ATOM     33  O5  GU8 d 437      54.993  -5.418  25.746  0.00  0.00    -0.348 OA
BRANCH  29  34
ATOM     34  O2  GU8 d 437      54.557  -8.197  23.365  0.00  0.00    -0.383 OA
ATOM     35  C7  GU8 d 437      55.636  -8.098  22.430  0.00  0.00     0.202 C 
ENDBRANCH  29  34
BRANCH  30  36
ATOM     36  O3  GU8 d 437      54.106  -9.468  25.883  0.00  0.00    -0.385 OA
ATOM     37  C8  GU8 d 437      55.430  -9.880  26.245  0.00  0.00     0.202 C 
ENDBRANCH  30  36
BRANCH  31  38
ATOM     38  O1  GU5 d 436      53.132  -7.697  27.932  0.00  0.00    -0.348 OA
BRANCH  38  39
ATOM     39  C1  GU5 d 436      53.529  -8.761  28.811  0.00  0.00     0.292 C 
ATOM     40  C2  GU5 d 436      52.307  -9.306  29.537  0.00  0.00     0.207 C 
ATOM     41  C3  GU5 d 436      51.643  -8.137  30.255  0.00  0.00     0.186 C 
ATOM     42  C4  GU5 d 436      52.612  -7.506  31.249  0.00  0.00     0.187 C 
ATOM     43  C5  GU5 d 436      53.925  -7.165  30.556  0.00  0.00     0.181 C 
ATOM     44  O5  GU5 d 436      54.451  -8.270  29.798  0.00  0.00    -0.348 OA
BRANCH  40  45
ATOM     45  O2  GU5 d 436      51.413 -10.089  28.726  0.00  0.00    -0.383 OA
ATOM     46  C7  GU5 d 436      50.801  -9.360  27.658  0.00  0.00     0.202 C 
ENDBRANCH  40  45
BRANCH  41  47
ATOM     47  O3  GU5 d 436      50.403  -8.534  30.867  0.00  0.00    -0.385 OA
ATOM     48  C8  GU5 d 436      50.536  -9.591  31.824  0.00  0.00     0.202 C 
ENDBRANCH  41  47
BRANCH  42  49
ATOM     49  O1  GU0 d 435      52.073  -6.294  31.800  0.00  0.00    -0.348 OA
BRANCH  49  50
ATOM     50  C1  GU0 d 435      52.020  -6.290  33.235  0.00  0.00     0.294 C 
ATOM     51  C2  GU0 d 435      52.089  -4.840  33.726  0.00  0.00     0.232 C 
ATOM     52  C3  GU0 d 435      51.846  -4.757  35.238  0.00  0.00     0.211 C 
ATOM     53  C4  GU0 d 435      50.552  -5.491  35.602  0.00  0.00     0.189 C 
ATOM     54  C5  GU0 d 435      50.605  -6.917  35.064  0.00  0.00     0.181 C 
ATOM     55  O5  GU0 d 435      50.792  -6.916  33.639  0.00  0.00    -0.348 OA
BRANCH  51  56
ATOM     56  O2  GU0 d 435      53.393  -4.327  33.434  0.00  0.00    -0.251 OA
BRANCH  56  57
ATOM     57  S2  GU0 d 435      53.386  -3.207  32.543  0.00  0.00     0.241 S 
ATOM     58  O23 GU0 d 435      52.222  -2.304  32.827  0.00  0.00    -0.579 OA
ATOM     59  O22 GU0 d 435      54.661  -2.444  32.745  0.00  0.00    -0.579 OA
BRANCH  57  60
ATOM     60  O24 GU0 d 435      53.313  -3.687  31.124  0.00  0.00    -0.274 OA
ATOM     61  H   GU0 d 435      53.309  -2.924  30.524  0.00  0.00     0.234 HD
ENDBRANCH  57  60
ENDBRANCH  56  57
ENDBRANCH  51  56
BRANCH  52  62
ATOM     62  O3  GU0 d 435      51.725  -3.383  35.630  0.00  0.00    -0.253 OA
BRANCH  62  63
ATOM     63  S3  GU0 d 435      52.770  -2.888  36.479  0.00  0.00     0.240 S 
ATOM     64  O26 GU0 d 435      53.999  -2.620  35.662  0.00  0.00    -0.579 OA
ATOM     65  O27 GU0 d 435      53.101  -3.870  37.564  0.00  0.00    -0.579 OA
BRANCH  63  66
ATOM     66  O25 GU0 d 435      52.326  -1.605  37.115  0.00  0.00    -0.274 OA
ATOM     67  H   GU0 d 435      52.108  -0.960  36.424  0.00  0.00     0.234 HD
ENDBRANCH  63  66
ENDBRANCH  62  63
ENDBRANCH  52  62
BRANCH  53  68
ATOM     68  O1  GU6 d 434      50.367  -5.517  37.026  0.00  0.00    -0.348 OA
BRANCH  68  69
ATOM     69  C1  GU6 d 434      49.624  -4.402  37.541  0.00  0.00     0.294 C 
ATOM     70  C2  GU6 d 434      49.634  -4.507  39.066  0.00  0.00     0.232 C 
ATOM     71  C3  GU6 d 434      48.565  -3.939  39.749  0.00  0.00     0.211 C 
ATOM     72  C4  GU6 d 434      47.335  -4.155  39.146  0.00  0.00     0.189 C 
ATOM     73  C5  GU6 d 434      47.289  -3.929  37.780  0.00  0.00     0.181 C 
ATOM     74  O5  GU6 d 434      48.290  -4.430  37.000  0.00  0.00    -0.348 OA
BRANCH  70  75
ATOM     75  O2  GU6 d 434      50.586  -5.247  39.693  0.00  0.00    -0.251 OA
BRANCH  75  76
ATOM     76  S2  GU6 d 434      50.039  -6.372  40.394  0.00  0.00     0.241 S 
ATOM     77  O14 GU6 d 434      48.808  -6.872  39.699  0.00  0.00    -0.579 OA
ATOM     78  O15 GU6 d 434      49.695  -5.968  41.797  0.00  0.00    -0.579 OA
BRANCH  76  79
ATOM     79  O13 GU6 d 434      51.044  -7.484  40.429  0.00  0.00    -0.274 OA
ATOM     80  H   GU6 d 434      51.267  -7.746  39.522  0.00  0.00     0.234 HD
ENDBRANCH  76  79
ENDBRANCH  75  76
ENDBRANCH  70  75
BRANCH  71  81
ATOM     81  O3  GU6 d 434      48.714  -3.138  40.836  0.00  0.00    -0.253 OA
BRANCH  81  82
ATOM     82  S3  GU6 d 434      49.014  -1.762  40.558  0.00  0.00     0.240 S 
ATOM     83  O16 GU6 d 434      48.392  -0.892  41.609  0.00  0.00    -0.579 OA
ATOM     84  O17 GU6 d 434      48.471  -1.347  39.223  0.00  0.00    -0.579 OA
BRANCH  82  85
ATOM     85  O18 GU6 d 434      50.499  -1.554  40.579  0.00  0.00    -0.274 OA
ATOM     86  H   GU6 d 434      50.698  -0.623  40.391  0.00  0.00     0.234 HD
ENDBRANCH  82  85
ENDBRANCH  81  82
ENDBRANCH  71  81
BRANCH  72  87
ATOM     87  O1  GU4 d 433      46.284  -4.714  39.804  0.00  0.00    -0.348 OA
BRANCH  87  88
ATOM     88  C1  GU4 d 433      45.619  -3.868  40.754  0.00  0.00     0.294 C 
ATOM     89  O5  GU4 d 433      44.611  -3.062  40.121  0.00  0.00    -0.348 OA
ATOM     90  C5  GU4 d 433      43.557  -3.812  39.494  0.00  0.00     0.183 C 
ATOM     91  C4  GU4 d 433      42.849  -4.762  40.469  0.00  0.00     0.208 C 
ATOM     92  C3  GU4 d 433      43.872  -5.619  41.220  0.00  0.00     0.212 C 
ATOM     93  C2  GU4 d 433      44.959  -4.731  41.834  0.00  0.00     0.232 C 
BRANCH  90  94
ATOM     94  C6  GU4 d 433      42.551  -2.780  38.978  0.00  0.00     0.226 C 
BRANCH  94  95
ATOM     95  O6  GU4 d 433      42.094  -1.943  40.045  0.00  0.00    -0.261 OA
BRANCH  95  96
ATOM     96  S6  GU4 d 433      41.211  -0.840  39.816  0.00  0.00     0.240 S 
ATOM     97  O22 GU4 d 433      40.416  -0.580  41.062  0.00  0.00    -0.579 OA
ATOM     98  O23 GU4 d 433      40.273  -1.154  38.687  0.00  0.00    -0.579 OA
BRANCH  96  99
ATOM     99  O21 GU4 d 433      42.016   0.379  39.474  0.00  0.00    -0.274 OA
ATOM    100  H   GU4 d 433      42.622   0.582  40.204  0.00  0.00     0.234 HD
ENDBRANCH  96  99
ENDBRANCH  95  96
ENDBRANCH  94  95
ENDBRANCH  90  94
BRANCH  91 101
ATOM    101  O4  GU4 d 433      42.001  -5.636  39.716  0.00  0.00    -0.253 OA
BRANCH 101 102
ATOM    102  S4  GU4 d 433      40.616  -5.540  40.071  0.00  0.00     0.240 S 
ATOM    103  O25 GU4 d 433      40.425  -5.947  41.502  0.00  0.00    -0.579 OA
ATOM    104  O24 GU4 d 433      40.125  -4.134  39.889  0.00  0.00    -0.579 OA
BRANCH 102 105
ATOM    105  O26 GU4 d 433      39.825  -6.454  39.183  0.00  0.00    -0.274 OA
ATOM    106  H   GU4 d 433      38.885  -6.397  39.415  0.00  0.00     0.234 HD
ENDBRANCH 102 105
ENDBRANCH 101 102
ENDBRANCH  91 101
BRANCH  92 107
ATOM    107  O3  GU4 d 433      43.217  -6.361  42.255  0.00  0.00    -0.253 OA
BRANCH 107 108
ATOM    108  S3  GU4 d 433      43.315  -7.783  42.098  0.00  0.00     0.240 S 
ATOM    109  O28 GU4 d 433      42.536  -8.447  43.193  0.00  0.00    -0.579 OA
ATOM    110  O29 GU4 d 433      44.749  -8.216  42.180  0.00  0.00    -0.579 OA
BRANCH 108 111
ATOM    111  O27 GU4 d 433      42.749  -8.205  40.775  0.00  0.00    -0.274 OA
ATOM    112  H   GU4 d 433      41.821  -7.927  40.717  0.00  0.00     0.234 HD
ENDBRANCH 108 111
ENDBRANCH 107 108
ENDBRANCH  92 107
BRANCH  93 113
ATOM    113  O2  GU4 d 433      45.933  -5.552  42.486  0.00  0.00    -0.251 OA
BRANCH 113 114
ATOM    114  S2  GU4 d 433      46.433  -4.952  43.685  0.00  0.00     0.241 S 
ATOM    115  O11 GU4 d 433      45.296  -4.511  44.560  0.00  0.00    -0.579 OA
ATOM    116  O10 GU4 d 433      47.268  -5.954  44.426  0.00  0.00    -0.579 OA
BRANCH 114 117
ATOM    117  O12 GU4 d 433      47.288  -3.769  43.339  0.00  0.00    -0.274 OA
ATOM    118  H   GU4 d 433      47.625  -3.365  44.154  0.00  0.00     0.234 HD
ENDBRANCH 114 117
ENDBRANCH 113 114
ENDBRANCH  93 113
ENDBRANCH  87  88
ENDBRANCH  72  87
BRANCH  73 119
ATOM    119  C6  GU6 d 434      46.225  -3.071  37.105  0.00  0.00     0.226 C 
BRANCH 119 120
ATOM    120  O6  GU6 d 434      45.317  -3.878  36.358  0.00  0.00    -0.261 OA
BRANCH 120 121
ATOM    121  S6  GU6 d 434      44.336  -3.237  35.542  0.00  0.00     0.240 S 
ATOM    122  O20 GU6 d 434      44.502  -3.708  34.128  0.00  0.00    -0.579 OA
ATOM    123  O21 GU6 d 434      44.515  -1.749  35.603  0.00  0.00    -0.579 OA
BRANCH 121 124
ATOM    124  O19 GU6 d 434      42.966  -3.590  36.044  0.00  0.00    -0.274 OA
ATOM    125  H   GU6 d 434      42.846  -4.552  36.006  0.00  0.00     0.234 HD
ENDBRANCH 121 124
ENDBRANCH 120 121
ENDBRANCH 119 120
ENDBRANCH  73 119
ENDBRANCH  68  69
ENDBRANCH  53  68
BRANCH  54 126
ATOM    126  C6  GU0 d 435      49.306  -7.676  35.346  0.00  0.00     0.226 C 
BRANCH 126 127
ATOM    127  O6  GU0 d 435      48.203  -7.077  34.660  0.00  0.00    -0.261 OA
BRANCH 127 128
ATOM    128  S6  GU0 d 435      47.056  -7.836  34.264  0.00  0.00     0.240 S 
ATOM    129  O28 GU0 d 435      47.398  -8.659  33.058  0.00  0.00    -0.579 OA
ATOM    130  O30 GU0 d 435      46.620  -8.736  35.381  0.00  0.00    -0.579 OA
BRANCH 128 131
ATOM    131  O29 GU0 d 435      45.935  -6.899  33.927  0.00  0.00    -0.274 OA
ATOM    132  H   GU0 d 435      45.156  -7.410  33.658  0.00  0.00     0.234 HD
ENDBRANCH 128 131
ENDBRANCH 127 128
ENDBRANCH 126 127
ENDBRANCH  54 126
ENDBRANCH  49  50
ENDBRANCH  42  49
BRANCH  43 133
ATOM    133  C6  GU5 d 436      54.951  -6.827  31.639  0.00  0.00     0.226 C 
BRANCH 133 134
ATOM    134  O6  GU5 d 436      55.171  -7.977  32.460  0.00  0.00    -0.261 OA
BRANCH 134 135
ATOM    135  S6  GU5 d 436      56.045  -7.922  33.590  0.00  0.00     0.240 S 
ATOM    136  O31 GU5 d 436      57.381  -7.391  33.162  0.00  0.00    -0.579 OA
ATOM    137  O32 GU5 d 436      56.220  -9.305  34.145  0.00  0.00    -0.579 OA
BRANCH 135 138
ATOM    138  O33 GU5 d 436      55.456  -7.028  34.641  0.00  0.00    -0.274 OA
ATOM    139  H   GU5 d 436      56.051  -6.993  35.406  0.00  0.00     0.234 HD
ENDBRANCH 135 138
ENDBRANCH 134 135
ENDBRANCH 133 134
ENDBRANCH  43 133
ENDBRANCH  38  39
ENDBRANCH  31  38
BRANCH  32 140
ATOM    140  C6  GU8 d 437      54.492  -5.026  28.060  0.00  0.00     0.201 C 
BRANCH 140 141
ATOM    141  O6  GU8 d 437      55.860  -5.291  28.405  0.00  0.00    -0.393 OA
ATOM    142  C9  GU8 d 437      56.369  -4.239  29.230  0.00  0.00     0.201 C 
ENDBRANCH 140 141
ENDBRANCH  32 140
ENDBRANCH  27  28
ENDBRANCH  21  27
BRANCH  22 143
ATOM    143  O3  GU9 d 438      56.789  -3.138  23.956  0.00  0.00    -0.385 OA
ATOM    144  C8  GU9 d 438      56.090  -2.430  24.987  0.00  0.00     0.202 C 
ENDBRANCH  22 143
BRANCH  23 145
ATOM    145  O2  GU9 d 438      56.683  -1.181  21.862  0.00  0.00    -0.383 OA
ATOM    146  C7  GU9 d 438      57.713  -1.764  21.054  0.00  0.00     0.202 C 
ENDBRANCH  23 145
ENDBRANCH  17  18
ENDBRANCH  11  17
BRANCH  12 147
ATOM    147  O3  GU8 d 439      54.646  -0.870  18.642  0.00  0.00    -0.385 OA
ATOM    148  C8  GU8 d 439      53.463  -0.371  18.007  0.00  0.00     0.202 C 
ENDBRANCH  12 147
BRANCH  13 149
ATOM    149  O2  GU8 d 439      55.181  -0.810  15.818  0.00  0.00    -0.383 OA
ATOM    150  C7  GU8 d 439      54.350  -0.669  14.661  0.00  0.00     0.202 C 
ENDBRANCH  13 149
ENDBRANCH   7   8
ENDBRANCH   2   7
BRANCH   5 151
ATOM    151  C6  GU9 d 440      57.073  -1.592  12.796  0.00  0.00     0.201 C 
BRANCH 151 152
ATOM    152  O6  GU9 d 440      58.364  -1.625  13.423  0.00  0.00    -0.393 OA
ATOM    153  C9  GU9 d 440      58.747  -0.299  13.799  0.00  0.00     0.201 C 
ENDBRANCH 151 152
ENDBRANCH   5 151
BRANCH   3 154
ATOM    154  O3  GU9 d 440      56.094  -6.166  14.449  0.00  0.00    -0.385 OA
ATOM    155  C8  GU9 d 440      57.297  -6.261  15.221  0.00  0.00     0.202 C 
ENDBRANCH   3 154
BRANCH   6 156
ATOM    156  O2  GU9 d 440      56.912  -7.164  11.966  0.00  0.00    -0.383 OA
ATOM    157  C7  GU9 d 440      58.090  -7.876  11.574  0.00  0.00     0.202 C 
ENDBRANCH   6 156
BRANCH   1 158
ATOM    158  O1  GU9 d 440      55.950  -4.893  10.463  0.00  0.00    -0.348 OA
BRANCH 158 159
ATOM    159  C4  GU8 d 441      55.972  -4.252   9.176  0.00  0.00     0.187 C 
ATOM    160  C3  GU8 d 441      56.422  -5.229   8.096  0.00  0.00     0.186 C 
ATOM    161  C2  GU8 d 441      56.357  -4.585   6.717  0.00  0.00     0.207 C 
ATOM    162  C1  GU8 d 441      54.928  -4.118   6.480  0.00  0.00     0.292 C 
ATOM    163  O5  GU8 d 441      54.555  -3.185   7.507  0.00  0.00    -0.348 OA
ATOM    164  C5  GU8 d 441      54.571  -3.770   8.820  0.00  0.00     0.180 C 
BRANCH 160 165
ATOM    165  O3  GU8 d 441      57.718  -5.804   8.344  0.00  0.00    -0.385 OA
ATOM    166  C8  GU8 d 441      58.799  -4.869   8.253  0.00  0.00     0.202 C 
ENDBRANCH 160 165
BRANCH 161 167
ATOM    167  O2  GU8 d 441      56.723  -5.571   5.740  0.00  0.00    -0.383 OA
ATOM    168  C7  GU8 d 441      57.211  -4.945   4.550  0.00  0.00     0.202 C 
ENDBRANCH 161 167
BRANCH 162 169
ATOM    169  O1  GU8 d 441      54.855  -3.476   5.197  0.00  0.00    -0.348 OA
BRANCH 169 170
ATOM    170  C4  GU9 d 442      53.542  -3.571   4.621  0.00  0.00     0.187 C 
ATOM    171  C5  GU9 d 442      53.650  -4.177   3.228  0.00  0.00     0.180 C 
ATOM    172  O5  GU9 d 442      52.384  -4.191   2.547  0.00  0.00    -0.348 OA
ATOM    173  C1  GU9 d 442      51.835  -2.873   2.379  0.00  0.00     0.292 C 
ATOM    174  C2  GU9 d 442      51.588  -2.279   3.759  0.00  0.00     0.207 C 
ATOM    175  C3  GU9 d 442      52.910  -2.190   4.510  0.00  0.00     0.186 C 
BRANCH 171 176
ATOM    176  C6  GU9 d 442      54.203  -5.591   3.314  0.00  0.00     0.201 C 
BRANCH 176 177
ATOM    177  O6  GU9 d 442      53.341  -6.412   4.115  0.00  0.00    -0.393 OA
ATOM    178  C9  GU9 d 442      53.892  -7.728   4.207  0.00  0.00     0.201 C 
ENDBRANCH 176 177
ENDBRANCH 171 176
BRANCH 173 179
ATOM    179  O1  GU9 d 442      52.738  -2.036   1.636  0.00  0.00    -0.348 OA
BRANCH 179 180
ATOM    180  C4  GU8 d 443      52.906  -2.431   0.264  0.00  0.00     0.187 C 
ATOM    181  C5  GU8 d 443      54.232  -1.856  -0.220  0.00  0.00     0.180 C 
ATOM    182  O5  GU8 d 443      54.432  -2.064  -1.629  0.00  0.00    -0.348 OA
ATOM    183  C1  GU8 d 443      53.395  -1.470  -2.428  0.00  0.00     0.292 C 
ATOM    184  C2  GU8 d 443      52.074  -2.139  -2.077  0.00  0.00     0.207 C 
ATOM    185  C3  GU8 d 443      51.795  -1.856  -0.606  0.00  0.00     0.186 C 
BRANCH 181 186
ATOM    186  C6  GU8 d 443      55.398  -2.486   0.526  0.00  0.00     0.201 C 
BRANCH 186 187
ATOM    187  O6  GU8 d 443      55.431  -3.896   0.259  0.00  0.00    -0.393 OA
ATOM    188  C9  GU8 d 443      56.714  -4.421   0.609  0.00  0.00     0.201 C 
ENDBRANCH 186 187
ENDBRANCH 181 186
BRANCH 183 189
ATOM    189  O1  GU8 d 443      53.694  -1.652  -3.816  0.00  0.00    -0.348 OA
BRANCH 189 190
ATOM    190  C4  GU5 d 444      54.464  -0.663  -4.495  0.00  0.00     0.187 C 
ATOM    191  C3  GU5 d 444      55.961  -0.954  -4.352  0.00  0.00     0.186 C 
ATOM    192  C2  GU5 d 444      56.765  -0.018  -5.246  0.00  0.00     0.207 C 
ATOM    193  C1  GU5 d 444      56.305  -0.135  -6.693  0.00  0.00     0.292 C 
ATOM    194  O5  GU5 d 444      54.896   0.151  -6.760  0.00  0.00    -0.348 OA
ATOM    195  C5  GU5 d 444      54.081  -0.738  -5.976  0.00  0.00     0.181 C 
BRANCH 191 196
ATOM    196  O3  GU5 d 444      56.310  -0.747  -2.973  0.00  0.00    -0.385 OA
ATOM    197  C8  GU5 d 444      57.493  -1.471  -2.620  0.00  0.00     0.202 C 
ENDBRANCH 191 196
BRANCH 192 198
ATOM    198  O2  GU5 d 444      58.166  -0.309  -5.129  0.00  0.00    -0.383 OA
ATOM    199  C7  GU5 d 444      58.953   0.821  -5.520  0.00  0.00     0.202 C 
ENDBRANCH 192 198
BRANCH 193 200
ATOM    200  O1  GU5 d 444      56.594  -1.436  -7.232  0.00  0.00    -0.347 OA
BRANCH 200 201
ATOM    201  C4  GU1 d 445      56.546  -1.424  -8.669  0.00  0.00     0.195 C 
ATOM    202  C3  GU1 d 445      57.931  -1.318  -9.295  0.00  0.00     0.186 C 
ATOM    203  C2  GU1 d 445      57.822  -1.293 -10.814  0.00  0.00     0.207 C 
ATOM    204  C1  GU1 d 445      57.097  -2.547 -11.275  0.00  0.00     0.293 C 
ATOM    205  O5  GU1 d 445      55.820  -2.677 -10.627  0.00  0.00    -0.340 OA
ATOM    206  C5  GU1 d 445      55.904  -2.702  -9.191  0.00  0.00     0.253 C 
BRANCH 202 207
ATOM    207  O3  GU1 d 445      58.689  -0.202  -8.791  0.00  0.00    -0.385 OA
ATOM    208  C8  GU1 d 445      58.199   1.081  -9.198  0.00  0.00     0.202 C 
ENDBRANCH 202 207
BRANCH 203 209
ATOM    209  O2  GU1 d 445      59.121  -1.280 -11.426  0.00  0.00    -0.383 OA
ATOM    210  C7  GU1 d 445      59.434   0.025 -11.921  0.00  0.00     0.202 C 
ENDBRANCH 203 209
BRANCH 204 211
ATOM    211  O1  GU1 d 445      56.916  -2.433 -12.695  0.00  0.00    -0.348 OA
BRANCH 211 212
ATOM    212  C4  GU6 d 446      56.784  -3.705 -13.348  0.00  0.00     0.189 C 
ATOM    213  C5  GU6 d 446      58.033  -3.986 -14.175  0.00  0.00     0.181 C 
ATOM    214  O5  GU6 d 446      57.886  -5.182 -14.961  0.00  0.00    -0.348 OA
ATOM    215  C1  GU6 d 446      56.780  -5.132 -15.881  0.00  0.00     0.294 C 
ATOM    216  C2  GU6 d 446      55.480  -4.968 -15.089  0.00  0.00     0.232 C 
ATOM    217  C3  GU6 d 446      55.566  -3.672 -14.277  0.00  0.00     0.211 C 
BRANCH 213 218
ATOM    218  C6  GU6 d 446      59.245  -4.131 -13.250  0.00  0.00     0.226 C 
BRANCH 218 219
ATOM    219  O6  GU6 d 446      59.091  -5.228 -12.343  0.00  0.00    -0.261 OA
BRANCH 219 220
ATOM    220  S6  GU6 d 446      60.034  -5.467 -11.292  0.00  0.00     0.240 S 
ATOM    221  O21 GU6 d 446      61.355  -5.875 -11.873  0.00  0.00    -0.579 OA
ATOM    222  O20 GU6 d 446      60.215  -4.221 -10.476  0.00  0.00    -0.579 OA
BRANCH 220 223
ATOM    223  O19 GU6 d 446      59.518  -6.565 -10.411  0.00  0.00    -0.274 OA
ATOM    224  H   GU6 d 446      60.153  -6.732  -9.697  0.00  0.00     0.234 HD
ENDBRANCH 220 223
ENDBRANCH 219 220
ENDBRANCH 218 219
ENDBRANCH 213 218
BRANCH 215 225
ATOM    225  O1  GU6 d 446      56.880  -3.993 -16.750  0.00  0.00    -0.347 OA
BRANCH 225 226
ATOM    226  C4  GU2 d 447      58.092  -3.945 -17.518  0.00  0.00     0.195 C 
ATOM    227  C3  GU2 d 447      57.992  -4.915 -18.691  0.00  0.00     0.186 C 
ATOM    228  C2  GU2 d 447      58.549  -4.306 -19.971  0.00  0.00     0.207 C 
ATOM    229  C1  GU2 d 447      57.764  -3.044 -20.308  0.00  0.00     0.293 C 
ATOM    230  O5  GU2 d 447      57.378  -2.313 -19.129  0.00  0.00    -0.340 OA
ATOM    231  C5  GU2 d 447      58.287  -2.528 -18.037  0.00  0.00     0.253 C 
BRANCH 227 232
ATOM    232  O3  GU2 d 447      58.635  -6.167 -18.391  0.00  0.00    -0.385 OA
ATOM    233  C8  GU2 d 447      60.040  -6.055 -18.131  0.00  0.00     0.202 C 
ENDBRANCH 227 232
BRANCH 228 234
ATOM    234  O2  GU2 d 447      58.471  -5.273 -21.031  0.00  0.00    -0.383 OA
ATOM    235  C7  GU2 d 447      59.371  -4.939 -22.092  0.00  0.00     0.202 C 
ENDBRANCH 228 234
BRANCH 229 236
ATOM    236  O1  GU2 d 447      58.535  -2.222 -21.198  0.00  0.00    -0.348 OA
BRANCH 236 237
ATOM    237  C4  GU3 d 448      57.744  -1.137 -21.707  0.00  0.00     0.187 C 
ATOM    238  C5  GU3 d 448      57.409  -1.384 -23.172  0.00  0.00     0.181 C 
ATOM    239  O5  GU3 d 448      56.655  -0.284 -23.709  0.00  0.00    -0.348 OA
ATOM    240  C1  GU3 d 448      57.355   0.970 -23.637  0.00  0.00     0.292 C 
ATOM    241  C2  GU3 d 448      57.678   1.298 -22.178  0.00  0.00     0.230 C 
ATOM    242  C3  GU3 d 448      58.516   0.170 -21.570  0.00  0.00     0.187 C 
BRANCH 238 243
ATOM    243  C6  GU3 d 448      56.571  -2.654 -23.338  0.00  0.00     0.226 C 
BRANCH 243 244
ATOM    244  O6  GU3 d 448      55.293  -2.511 -22.713  0.00  0.00    -0.261 OA
BRANCH 244 245
ATOM    245  S6  GU3 d 448      54.279  -3.511 -22.865  0.00  0.00     0.240 S 
ATOM    246  O52 GU3 d 448      54.854  -4.866 -22.578  0.00  0.00    -0.579 OA
ATOM    247  O50 GU3 d 448      53.751  -3.478 -24.268  0.00  0.00    -0.579 OA
BRANCH 245 248
ATOM    248  O51 GU3 d 448      53.157  -3.231 -21.909  0.00  0.00    -0.274 OA
ATOM    249  H   GU3 d 448      52.469  -3.907 -22.011  0.00  0.00     0.234 HD
ENDBRANCH 245 248
ENDBRANCH 244 245
ENDBRANCH 243 244
ENDBRANCH 238 243
BRANCH 240 250
ATOM    250  O1  GU3 d 448      58.568   0.945 -24.404  0.00  0.00    -0.363 OA
ATOM    251  C8  GU3 d 448      58.264   0.896 -25.801  0.00  0.00     0.204 C 
ENDBRANCH 240 250
BRANCH 241 252
ATOM    252  O2  GU3 d 448      58.405   2.529 -22.123  0.00  0.00    -0.251 OA
BRANCH 252 253
ATOM    253  S2  GU3 d 448      57.553   3.617 -21.750  0.00  0.00     0.241 S 
ATOM    254  O53 GU3 d 448      58.280   4.918 -21.924  0.00  0.00    -0.579 OA
ATOM    255  O55 GU3 d 448      56.329   3.624 -22.617  0.00  0.00    -0.579 OA
BRANCH 253 256
ATOM    256  O54 GU3 d 448      57.156   3.467 -20.311  0.00  0.00    -0.274 OA
ATOM    257  H   GU3 d 448      57.951   3.463 -19.755  0.00  0.00     0.234 HD
ENDBRANCH 253 256
ENDBRANCH 252 253
ENDBRANCH 241 252
BRANCH 242 258
ATOM    258  O3  GU3 d 448      58.742   0.484 -20.188  0.00  0.00    -0.385 OA
ATOM    259  C7  GU3 d 448      59.912  -0.180 -19.701  0.00  0.00     0.202 C 
ENDBRANCH 242 258
ENDBRANCH 236 237
ENDBRANCH 229 236
BRANCH 231 260
ATOM    260  C6  GU2 d 447      58.010  -1.508 -16.929  0.00  0.00     0.172 C 
ATOM    261  O49 GU2 d 447      56.864  -1.088 -16.754  0.00  0.00    -0.648 OA
BRANCH 260 262
ATOM    262  O48 GU2 d 447      58.924  -1.108 -16.217  0.00  0.00    -0.774 OA
ATOM    263  H   GU2 d 447      59.795  -1.427 -16.349  0.00  0.00     0.167 HD
ENDBRANCH 260 262
ENDBRANCH 231 260
ENDBRANCH 225 226
ENDBRANCH 215 225
BRANCH 216 264
ATOM    264  O2  GU6 d 446      54.352  -4.918 -15.972  0.00  0.00    -0.251 OA
BRANCH 264 265
ATOM    265  S2  GU6 d 446      54.079  -6.156 -16.637  0.00  0.00     0.241 S 
ATOM    266  O13 GU6 d 446      54.468  -7.319 -15.771  0.00  0.00    -0.579 OA
ATOM    267  O15 GU6 d 446      52.615  -6.256 -16.950  0.00  0.00    -0.579 OA
BRANCH 265 268
ATOM    268  O14 GU6 d 446      54.857  -6.204 -17.919  0.00  0.00    -0.274 OA
ATOM    269  H   GU6 d 446      54.677  -7.041 -18.375  0.00  0.00     0.234 HD
ENDBRANCH 265 268
ENDBRANCH 264 265
ENDBRANCH 216 264
BRANCH 217 270
ATOM    270  O3  GU6 d 446      54.375  -3.491 -13.504  0.00  0.00    -0.253 OA
BRANCH 270 271
ATOM    271  S3  GU6 d 446      53.627  -2.338 -13.906  0.00  0.00     0.240 S 
ATOM    272  O17 GU6 d 446      53.236  -2.446 -15.350  0.00  0.00    -0.579 OA
ATOM    273  O18 GU6 d 446      52.388  -2.261 -13.065  0.00  0.00    -0.579 OA
BRANCH 271 274
ATOM    274  O16 GU6 d 446      54.441  -1.092 -13.714  0.00  0.00    -0.274 OA
ATOM    275  H   GU6 d 446      55.242  -1.142 -14.258  0.00  0.00     0.234 HD
ENDBRANCH 271 274
ENDBRANCH 270 271
ENDBRANCH 217 270
ENDBRANCH 211 212
ENDBRANCH 204 211
BRANCH 206 276
ATOM    276  C6  GU1 d 445      54.496  -2.847  -8.609  0.00  0.00     0.172 C 
ATOM    277  O38 GU1 d 445      54.327  -3.451  -7.547  0.00  0.00    -0.648 OA
BRANCH 276 278
ATOM    278  O37 GU1 d 445      53.532  -2.364  -9.196  0.00  0.00    -0.774 OA
ATOM    279  H   GU1 d 445      53.657  -1.905 -10.003  0.00  0.00     0.167 HD
ENDBRANCH 276 278
ENDBRANCH 206 276
ENDBRANCH 200 201
ENDBRANCH 193 200
BRANCH 195 280
ATOM    280  C6  GU5 d 444      52.612  -0.348  -6.159  0.00  0.00     0.226 C 
BRANCH 280 281
ATOM    281  O6  GU5 d 444      52.401   1.020  -5.799  0.00  0.00    -0.261 OA
BRANCH 281 282
ATOM    282  S6  GU5 d 444      51.157   1.675  -6.065  0.00  0.00     0.240 S 
ATOM    283  O31 GU5 d 444      50.054   0.991  -5.316  0.00  0.00    -0.579 OA
ATOM    284  O32 GU5 d 444      50.863   1.628  -7.534  0.00  0.00    -0.579 OA
BRANCH 282 285
ATOM    285  O33 GU5 d 444      51.256   3.105  -5.623  0.00  0.00    -0.274 OA
ATOM    286  H   GU5 d 444      51.446   3.137  -4.672  0.00  0.00     0.234 HD
ENDBRANCH 282 285
ENDBRANCH 281 282
ENDBRANCH 280 281
ENDBRANCH 195 280
ENDBRANCH 189 190
ENDBRANCH 183 189
BRANCH 184 287
ATOM    287  O2  GU8 d 443      51.015  -1.587  -2.873  0.00  0.00    -0.383 OA
ATOM    288  C7  GU8 d 443      50.857  -2.337  -4.082  0.00  0.00     0.202 C 
ENDBRANCH 184 287
BRANCH 185 289
ATOM    289  O3  GU8 d 443      50.489  -2.288  -0.180  0.00  0.00    -0.385 OA
ATOM    290  C8  GU8 d 443      49.964  -3.422  -0.881  0.00  0.00     0.202 C 
ENDBRANCH 185 289
ENDBRANCH 179 180
ENDBRANCH 173 179
BRANCH 174 291
ATOM    291  O2  GU9 d 442      50.911  -1.010   3.698  0.00  0.00    -0.383 OA
ATOM    292  C7  GU9 d 442      51.676   0.037   3.090  0.00  0.00     0.202 C 
ENDBRANCH 174 291
BRANCH 175 293
ATOM    293  O3  GU9 d 442      52.765  -1.524   5.777  0.00  0.00    -0.385 OA
ATOM    294  C8  GU9 d 442      51.920  -2.223   6.699  0.00  0.00     0.202 C 
ENDBRANCH 175 293
ENDBRANCH 169 170
ENDBRANCH 162 169
BRANCH 164 295
ATOM    295  C6  GU8 d 441      54.063  -2.717   9.792  0.00  0.00     0.201 C 
BRANCH 295 296
ATOM    296  O6  GU8 d 441      54.787  -1.492   9.607  0.00  0.00    -0.393 OA
ATOM    297  C9  GU8 d 441      54.124  -0.432  10.302  0.00  0.00     0.201 C 
ENDBRANCH 295 296
ENDBRANCH 164 295
ENDBRANCH 158 159
ENDBRANCH   1 158
TORSDOF 130
