REMARK  11 active torsions:
REMARK  status: ('A' for Active; 'I' for Inactive)
REMARK    1 I    between atoms: C6_2  and  C5_28 
REMARK    2 I    between atoms: C6_2  and  O6_5 
REMARK    3 I    between atoms: C2_4  and  O2_16 
REMARK    4 I    between atoms: C5_6  and  C6_24 
REMARK    5 I    between atoms: C4_7  and  O4_17 
REMARK    6 I    between atoms: O3_8  and  C3_19 
REMARK    7 I    between atoms: O3_10  and  C3_18 
REMARK    8 A    between atoms: O3_10  and  C1_30 
REMARK    8  A    between atoms: O3_10  and  C1_30 
REMARK    9 I    between atoms: N_11  and  C2_26 
REMARK      I    between atoms: N_11  and  C7_21 
REMARK   10 I    between atoms: O4_17  and  S_25 
REMARK   11 A    between atoms: O1_27  and  C1_29 
REMARK   11  A    between atoms: O1_27  and  C1_29 
ROOT
ATOM      1  C4  ASG d 514      27.466  23.348   0.962  0.00  0.00     0.207 C 
ATOM      2  O5  ASG d 514      26.955  21.812   2.777  0.00  0.00    -0.349 OA
ATOM      3  C3  ASG d 514      26.827  22.370  -0.040  0.00  0.00     0.185 C 
ATOM      4  C2  ASG d 514      25.800  21.469   0.650  0.00  0.00     0.171 C 
ATOM      5  C5  ASG d 514      28.015  22.587   2.178  0.00  0.00     0.181 C 
ATOM      6  C1  ASG d 514      26.444  20.817   1.876  0.00  0.00     0.282 C 
ENDROOT
BRANCH   3   7
ATOM      7  O3  ASG d 514      26.191  23.109  -1.096  0.00  0.00    -0.348 OA
BRANCH   7   8
ATOM      8  C1  GC4 d 516      26.636  22.832  -2.431  0.00  0.00     0.298 C 
ATOM      9  O5  GC4 d 516      27.985  23.254  -2.629  0.00  0.00    -0.311 OA
ATOM     10  C5  GC4 d 516      28.242  24.668  -2.751  0.00  0.00     0.147 C 
ATOM     11  C4  GC4 d 516      27.089  25.531  -3.274  0.00  0.00     0.051 C 
ATOM     12  C3  GC4 d 516      25.724  24.877  -3.621  0.00  0.00     0.177 C 
ATOM     13  C2  GC4 d 516      25.773  23.331  -3.603  0.00  0.00     0.206 C 
BRANCH  10  14
ATOM     14  C6  GC4 d 516      29.548  25.317  -2.314  0.00  0.00     0.233 C 
ATOM     15  O6A GC4 d 516      29.695  26.552  -2.462  0.00  0.00    -0.642 OA
ATOM     16  O6B GC4 d 516      30.400  24.599  -1.751  0.00  0.00    -0.642 OA
ENDBRANCH  10  14
BRANCH  12  17
ATOM     17  O3  GC4 d 516      24.953  25.336  -2.509  0.00  0.00    -0.389 OA
ATOM     18  H   GC4 d 516      24.046  25.000  -2.584  0.00  0.00     0.210 HD
ENDBRANCH  12  17
BRANCH  13  19
ATOM     19  O2  GC4 d 516      26.297  22.861  -4.838  0.00  0.00    -0.388 OA
ATOM     20  H   GC4 d 516      27.196  23.204  -4.959  0.00  0.00     0.210 HD
ENDBRANCH  13  19
ENDBRANCH   7   8
ENDBRANCH   3   7
BRANCH   1  21
ATOM     21  O4  ASG d 514      26.494  24.310   1.377  0.00  0.00    -0.246 OA
BRANCH  21  22
ATOM     22  S   ASG d 514      26.473  25.745   1.122  0.00  0.00     0.252 S 
ATOM     23  OSC ASG d 514      27.700  26.171   0.511  0.00  0.00    -0.572 OA
ATOM     24  OSA ASG d 514      25.422  26.033   0.193  0.00  0.00    -0.572 OA
ATOM     25  OSB ASG d 514      26.333  26.405   2.378  0.00  0.00    -0.572 OA
ENDBRANCH  21  22
ENDBRANCH   1  21
BRANCH   4  26
ATOM     26  N   ASG d 514      25.333  20.438  -0.269  0.00  0.00    -0.349 N 
ATOM     27  C7  ASG d 514      24.140  20.524  -0.869  0.00  0.00     0.214 C 
ATOM     28  O7  ASG d 514      23.346  21.468  -0.685  0.00  0.00    -0.274 OA
ATOM     29  C8  ASG d 514      23.747  19.445  -1.815  0.00  0.00     0.117 C 
ATOM     30  H   ASG d 514      25.909  19.661  -0.452  0.00  0.00     0.163 HD
ENDBRANCH   4  26
BRANCH   5  31
ATOM     31  C6  ASG d 514      28.554  23.499   3.262  0.00  0.00     0.199 C 
BRANCH  31  32
ATOM     32  O6  ASG d 514      29.754  24.141   2.856  0.00  0.00    -0.398 OA
ATOM     33  H   ASG d 514      30.432  23.472   2.672  0.00  0.00     0.209 HD
ENDBRANCH  31  32
ENDBRANCH   5  31
BRANCH   6  34
ATOM     34  O1  ASG d 514      25.495  20.067   2.551  0.00  0.00    -0.369 OA
ATOM     35  H   ASG d 514      25.902  19.654   3.328  0.00  0.00     0.212 HD
ENDBRANCH   6  34
TORSDOF 11
