REMARK 20 active torsions
REMARK    1  A    between atoms: atom2  and  atom_
REMARK    2  A    between atoms: atom7  and  atom_
REMARK    3  A    between atoms: atom1  and  atom1
REMARK    4  A    between atoms: atom1  and  atom8
REMARK    5  A    between atoms: atom2  and  atom0
REMARK    6  A    between atoms: atom2  and  atom1
REMARK    7  A    between atoms: atom3  and  atom0
REMARK    8  A    between atoms: atom2  and  atom3
REMARK    9  A    between atoms: atom6  and  atom_
REMARK    10  A    between atoms: atom4  and  atom_
REMARK    11  A    between atoms: atom6  and  atom2
REMARK    12  A    between atoms: atom6  and  atom6
REMARK    13  A    between atoms: atom7  and  atom3
REMARK    14  A    between atoms: atom7  and  atom6
REMARK    15  A    between atoms: atom7  and  atom9
REMARK    16  A    between atoms: atom1  and  atom_
REMARK    17  A    between atoms: atom1  and  atom4
REMARK    18  A    between atoms: atom4  and  atom2
REMARK    19  A    between atoms: atom3  and  atom_
REMARK    20  A    between atoms: atom9  and  atom2
ROOT
ATOM      1  C5  NAG d2002       9.530  -8.516  30.803  0.00  0.00     0.179 C 
ATOM      2  C3  NAG d2002       7.511  -9.982  31.424  0.00  0.00     0.183 C 
ATOM      3  C4  NAG d2002       8.098  -8.520  31.484  0.00  0.00     0.180 C 
ATOM      4  C1  NAG d2002       9.871 -10.885  31.481  0.00  0.00     0.286 C 
ATOM      5  O5  NAG d2002      10.432  -9.471  31.498  0.00  0.00    -0.349 OA
ATOM      6  C2  NAG d2002       8.458 -10.940  32.182  0.00  0.00     0.171 C 
ENDROOT
BRANCH   1  96
ATOM     96  C6  NAG d2002      10.188  -7.130  30.842  0.00  0.00     0.198 C 
ATOM     97  O6  NAG d2002      10.094  -6.495  32.134  0.00  0.00    -0.398 OA
ATOM     98  H   NAG d2002      10.525  -5.627  32.099  0.00  0.00     0.209 HD
ENDBRANCH   1  96
BRANCH   2   7
ATOM      7  O3  NAG d2002       6.133 -10.059  32.019  0.00  0.00    -0.348 OA
BRANCH   7   8
ATOM      8  C1  BDP d2003       5.207 -10.217  30.946  0.00  0.00     0.292 C 
ATOM      9  O5  BDP d2003       5.394  -9.035  30.142  0.00  0.00    -0.340 OA
ATOM     10  C5  BDP d2003       4.653  -8.801  28.858  0.00  0.00     0.253 C 
ATOM     11  C4  BDP d2003       3.137  -9.160  29.197  0.00  0.00     0.195 C 
ATOM     12  C3  BDP d2003       2.932 -10.545  29.945  0.00  0.00     0.183 C 
ATOM     13  C2  BDP d2003       3.694 -10.401  31.332  0.00  0.00     0.204 C 
ATOM     14  C6  BDP d2003       4.950  -7.640  28.245  0.00  0.00     0.172 C 
ATOM     15  O6A BDP d2003       5.268  -7.773  27.043  0.00  0.00    -0.648 OA
ATOM     51  O3  BDP d2003       1.532 -10.750  30.216  0.00  0.00    -0.390 OA
ATOM     52  H   BDP d2003       1.194 -10.013  30.749  0.00  0.00     0.210 HD
ATOM     53  O2  BDP d2003       3.569 -11.609  32.120  0.00  0.00    -0.388 OA
ATOM     54  H   BDP d2003       3.923 -12.360  31.619  0.00  0.00     0.210 HD
BRANCH  11  18
ATOM     18  O4  BDP d2003       2.656  -8.869  27.821  0.00  0.00    -0.348 OA
BRANCH  18  19
ATOM     19  C1  NAG d2004       1.452  -8.971  27.095  0.00  0.00     0.286 C 
ATOM     20  C2  NAG d2004       1.789  -8.336  25.708  0.00  0.00     0.171 C 
ATOM     21  C3  NAG d2004       0.573  -8.457  24.774  0.00  0.00     0.183 C 
ATOM     22  C4  NAG d2004       0.238  -9.999  24.605  0.00  0.00     0.180 C 
ATOM     23  C5  NAG d2004      -0.092 -10.601  26.041  0.00  0.00     0.179 C 
ATOM     24  O5  NAG d2004       1.112 -10.420  26.905  0.00  0.00    -0.349 OA
ATOM     46  O4  NAG d2004      -0.935 -10.213  23.732  0.00  0.00    -0.390 OA
ATOM     47  H   NAG d2004      -0.752  -9.852  22.851  0.00  0.00     0.210 HD
BRANCH  20  25
ATOM     25  N2  NAG d2004       2.134  -6.830  25.859  0.00  0.00    -0.349 N 
ATOM     26  C7  NAG d2004       1.625  -5.944  26.877  0.00  0.00     0.214 C 
ATOM     27  C8  NAG d2004       2.150  -4.531  26.730  0.00  0.00     0.117 C 
ATOM     28  O7  NAG d2004       0.837  -6.245  27.796  0.00  0.00    -0.274 OA
ATOM     29  H   NAG d2004       2.756  -6.445  25.201  0.00  0.00     0.163 HD
ENDBRANCH  20  25
BRANCH  21  30
ATOM     30  O3  NAG d2004       0.926  -7.864  23.467  0.00  0.00    -0.348 OA
BRANCH  30  31
ATOM     31  C1  BDP d2005      -0.110  -7.440  22.615  0.00  0.00     0.293 C 
ATOM     32  C2  BDP d2005       0.507  -6.902  21.379  0.00  0.00     0.209 C 
ATOM     33  C3  BDP d2005      -0.705  -6.525  20.514  0.00  0.00     0.224 C 
ATOM     34  C4  BDP d2005      -2.030  -7.153  20.366  0.00  0.00     0.197 C 
ATOM     35  C5  BDP d2005      -2.096  -8.135  21.289  0.00  0.00     0.294 C 
ATOM     36  O4  BDP d2005      -2.617  -7.244  19.466  0.00  0.00    -0.292 OA
ATOM     37  O5  BDP d2005      -0.946  -8.523  22.189  0.00  0.00    -0.335 OA
ATOM     38  O2  BDP d2005       1.318  -5.791  21.734  0.00  0.00    -0.388 OA
ATOM     39  H   BDP d2005       2.062  -6.094  22.277  0.00  0.00     0.210 HD
ATOM     40  O3  BDP d2005      -0.193  -6.084  19.210  0.00  0.00    -0.385 OA
ATOM     41  H   BDP d2005       0.132  -6.852  18.714  0.00  0.00     0.210 HD
ATOM     42  C6  BDP d2005      -2.784  -9.373  21.081  0.00  0.00     0.177 C 
ATOM     43  O6A BDP d2005      -2.413 -10.054  20.066  0.00  0.00    -0.648 OA
BRANCH  42  44
ATOM     44  O6B BDP d2005      -3.642  -9.638  21.986  0.00  0.00    -0.774 OA
ATOM     45  H   BDP d2005      -3.801  -9.023  22.675  0.00  0.00     0.167 HD
ENDBRANCH  42  44
ENDBRANCH  30  31
ENDBRANCH  21  30
BRANCH  23  48
ATOM     48  C6  NAG d2004      -0.400 -12.106  25.926  0.00  0.00     0.198 C 
ATOM     49  O6  NAG d2004      -0.337 -12.608  24.573  0.00  0.00    -0.398 OA
ATOM     50  H   NAG d2004      -1.005 -12.161  24.031  0.00  0.00     0.209 HD
ENDBRANCH  23  48
ENDBRANCH  18  19
ENDBRANCH  11  18
BRANCH  14  16
ATOM     16  O6B BDP d2003       4.827  -6.597  28.958  0.00  0.00    -0.774 OA
ATOM     17  H   BDP d2003       4.577  -6.671  29.858  0.00  0.00     0.167 HD
ENDBRANCH  14  16
ENDBRANCH   7   8
ENDBRANCH   2   7
BRANCH   3  60
ATOM     60  O4  NAG d2002       7.260  -7.578  30.771  0.00  0.00    -0.390 OA
ATOM     61  H   NAG d2002       7.207  -7.835  29.837  0.00  0.00     0.210 HD
ENDBRANCH   3  60
BRANCH   4  62
ATOM     62  O4  BDP d2001      10.768 -11.753  32.147  0.00  0.00    -0.348 OA
BRANCH  62  63
ATOM     63  C4  BDP d2001      12.176 -11.942  31.740  0.00  0.00     0.195 C 
ATOM     64  C3  BDP d2001      13.169 -11.142  32.664  0.00  0.00     0.183 C 
ATOM     65  C2  BDP d2001      14.636 -11.459  32.225  0.00  0.00     0.204 C 
ATOM     66  C1  BDP d2001      14.823 -13.005  32.453  0.00  0.00     0.292 C 
ATOM     67  O5  BDP d2001      13.881 -13.770  31.641  0.00  0.00    -0.340 OA
ATOM     68  C5  BDP d2001      12.367 -13.562  31.770  0.00  0.00     0.253 C 
ATOM     69  O3  BDP d2001      12.911  -9.722  32.507  0.00  0.00    -0.390 OA
ATOM     70  H   BDP d2001      13.035  -9.472  31.578  0.00  0.00     0.210 HD
ATOM     71  O2  BDP d2001      15.575 -10.715  33.054  0.00  0.00    -0.388 OA
ATOM     72  H   BDP d2001      16.482 -10.917  32.776  0.00  0.00     0.210 HD
ATOM     92  C6  BDP d2001      11.630 -14.355  30.949  0.00  0.00     0.172 C 
ATOM     93  O6A BDP d2001      11.997 -15.560  30.926  0.00  0.00    -0.648 OA
BRANCH  66  73
ATOM     73  O3  NAG d2000      16.118 -13.448  32.110  0.00  0.00    -0.348 OA
BRANCH  73  74
ATOM     74  C3  NAG d2000      16.593 -14.687  32.737  0.00  0.00     0.183 C 
ATOM     75  C4  NAG d2000      16.428 -15.873  31.714  0.00  0.00     0.180 C 
ATOM     76  C5  NAG d2000      16.955 -17.212  32.384  0.00  0.00     0.179 C 
ATOM     77  O5  NAG d2000      18.393 -17.056  32.775  0.00  0.00    -0.349 OA
ATOM     78  C1  NAG d2000      18.584 -15.887  33.735  0.00  0.00     0.282 C 
ATOM     79  C2  NAG d2000      18.112 -14.542  33.092  0.00  0.00     0.171 C 
ATOM     80  O4  NAG d2000      15.028 -16.071  31.361  0.00  0.00    -0.390 OA
ATOM     81  H   NAG d2000      14.521 -16.289  32.159  0.00  0.00     0.210 HD
ATOM     85  O1  NAG d2000      19.962 -15.807  34.060  0.00  0.00    -0.369 OA
ATOM     86  H   NAG d2000      20.108 -15.068  34.671  0.00  0.00     0.212 HD
BRANCH  76  82
ATOM     82  C6  NAG d2000      16.849 -18.434  31.428  0.00  0.00     0.198 C 
ATOM     83  O6  NAG d2000      16.331 -19.635  32.074  0.00  0.00    -0.398 OA
ATOM     84  H   NAG d2000      16.934 -19.906  32.784  0.00  0.00     0.209 HD
ENDBRANCH  76  82
BRANCH  79  87
ATOM     87  N2  NAG d2000      18.311 -13.409  34.092  0.00  0.00    -0.349 N 
ATOM     88  C7  NAG d2000      18.543 -12.071  33.705  0.00  0.00     0.214 C 
ATOM     89  O7  NAG d2000      18.616 -11.659  32.530  0.00  0.00    -0.274 OA
ATOM     90  C8  NAG d2000      18.689 -11.146  34.888  0.00  0.00     0.117 C 
ATOM     91  H   NAG d2000      18.276 -13.620  35.053  0.00  0.00     0.163 HD
ENDBRANCH  79  87
ENDBRANCH  73  74
ENDBRANCH  66  73
BRANCH  92  94
ATOM     94  O6B BDP d2001      10.715 -13.771  30.290  0.00  0.00    -0.774 OA
ATOM     95  H   BDP d2001      10.557 -12.856  30.417  0.00  0.00     0.167 HD
ENDBRANCH  92  94
ENDBRANCH  62  63
ENDBRANCH   4  62
BRANCH   6  55
ATOM     55  N2  NAG d2002       7.864 -12.335  32.155  0.00  0.00    -0.349 N 
ATOM     56  C7  NAG d2002       7.197 -12.844  33.290  0.00  0.00     0.214 C 
ATOM     57  O7  NAG d2002       7.047 -12.250  34.360  0.00  0.00    -0.274 OA
ATOM     58  C8  NAG d2002       6.650 -14.218  33.062  0.00  0.00     0.117 C 
ATOM     59  H   NAG d2002       7.944 -12.887  31.344  0.00  0.00     0.163 HD
ENDBRANCH   6  55
TORSDOF 20
