REMARK  0 active torsions:
REMARK  status: ('A' for Active; 'I' for Inactive)
REMARK       I    between atoms: C8_1  and  N14_25 
REMARK       I    between atoms: C12_2  and  O18_17 
REMARK       I    between atoms: O3_3  and  C1_11 
REMARK       I    between atoms: O3_3  and  C7_24 
REMARK       I    between atoms: O29_4  and  S20_18 
REMARK       I    between atoms: C2_8  and  C6_26 
REMARK       I    between atoms: O9_9  and  C4_30 
REMARK       I    between atoms: C17_10  and  O25_23 
REMARK       I    between atoms: C10_12  and  O15_19 
REMARK       I    between atoms: O11_13  and  C6_26 
REMARK       I    between atoms: O18_17  and  S26_20 
REMARK       I    between atoms: S20_18  and  N14_25 
REMARK       I    between atoms: S20_18  and  O28_29 
REMARK       I    between atoms: S20_18  and  O30_22 
REMARK       I    between atoms: S26_20  and  O31_21 
REMARK       I    between atoms: C27_27  and  C19_28 
REMARK       I    between atoms: C27_27  and  O35_31 
ROOT
ATOM      1  C8  H3S d 301      18.096   6.315  32.880  0.00  0.00     0.157 C 
ATOM      2  C12 H3S d 301      16.733   8.584  37.851  0.00  0.00     0.232 C 
ATOM      3  O3  H3S d 301      18.597   8.289  36.147  0.00  0.00    -0.348 OA
ATOM      4  O29 H3S d 301      16.402   2.992  31.956  0.00  0.00    -0.296 OA
ATOM      5  O33 H3S d 301      14.315   7.026  39.013  0.00  0.00    -0.579 OA
ATOM      6  O5  H3S d 301      19.057   8.547  32.376  0.00  0.00    -0.350 OA
ATOM      7  O34 H3S d 301      18.221  12.931  35.793  0.00  0.00    -0.645 OA
ATOM      8  C2  H3S d 301      18.826   8.998  33.752  0.00  0.00     0.179 C 
ATOM      9  O9  H3S d 301      17.748   5.675  35.230  0.00  0.00    -0.391 OA
ATOM     10  C17 H3S d 301      17.716   9.228  38.919  0.00  0.00     0.179 C 
ATOM     11  C1  H3S d 301      18.805   7.800  34.808  0.00  0.00     0.186 C 
ATOM     12  C10 H3S d 301      18.088   7.539  31.929  0.00  0.00     0.278 C 
ATOM     13  O11 H3S d 301      21.226   9.567  33.941  0.00  0.00    -0.398 OA
ATOM     14  C24 H3S d 301      18.259  10.614  38.497  0.00  0.00     0.051 C 
ATOM     15  O32 H3S d 301      14.209   7.648  36.548  0.00  0.00    -0.579 OA
ATOM     16  O13 H3S d 301      17.366  10.387  36.287  0.00  0.00    -0.311 OA
ATOM     17  O18 H3S d 301      15.431   9.210  38.018  0.00  0.00    -0.250 OA
ATOM     18  S20 H3S d 301      17.497   3.745  32.461  0.00  0.00     0.156 S 
ATOM     19  O15 H3S d 301      16.757   8.119  31.881  0.00  0.00    -0.369 OA
ATOM     20  S26 H3S d 301      14.238   8.224  37.867  0.00  0.00     0.241 S 
ATOM     21  O31 H3S d 301      13.036   8.967  38.059  0.00  0.00    -0.274 OA
ATOM     22  O30 H3S d 301      18.850   3.490  31.534  0.00  0.00    -0.296 OA
ATOM     23  O25 H3S d 301      18.823   8.342  39.137  0.00  0.00    -0.389 OA
ATOM     24  C7  H3S d 301      17.264   8.909  36.402  0.00  0.00     0.300 C 
ATOM     25  N14 H3S d 301      17.113   5.344  32.421  0.00  0.00    -0.210 NA
ATOM     26  C6  H3S d 301      19.889  10.059  34.142  0.00  0.00     0.198 C 
ATOM     27  C27 H3S d 301      18.575  12.445  36.844  0.00  0.00     0.200 C 
ATOM     28  C19 H3S d 301      18.063  11.117  37.234  0.00  0.00     0.144 C 
ATOM     29  O28 H3S d 301      17.757   3.342  33.804  0.00  0.00    -0.296 OA
ATOM     30  C4  H3S d 301      17.762   6.780  34.314  0.00  0.00     0.173 C 
ATOM     31  O35 H3S d 301      19.452  13.159  37.661  0.00  0.00    -0.771 OA
ATOM     32  H   H3S d 301      15.619   3.151  32.507  0.00  0.00     0.231 HD
ATOM     33  H   H3S d 301      17.096   5.020  34.936  0.00  0.00     0.210 HD
ATOM     34  H   H3S d 301      21.864  10.252  34.194  0.00  0.00     0.209 HD
ATOM     35  H   H3S d 301      16.502   8.417  32.768  0.00  0.00     0.212 HD
ATOM     36  H   H3S d 301      12.273   8.375  37.970  0.00  0.00     0.234 HD
ATOM     37  H   H3S d 301      18.673   3.764  30.621  0.00  0.00     0.231 HD
ATOM     38  H   H3S d 301      19.317   8.232  38.309  0.00  0.00     0.210 HD
ATOM     39  H   H3S d 301      16.894   5.575  31.452  0.00  0.00     0.140 HD
ATOM     40  H   H3S d 301      16.966   3.491  34.345  0.00  0.00     0.231 HD
ATOM     41  H   H3S d 301      19.734  12.795  38.477  0.00  0.00     0.167 HD
ENDROOT
TORSDOF 17
