REMARK  23 active torsions:
REMARK  status: ('A' for Active; 'I' for Inactive)
REMARK    1 I    between atoms: C5_3  and  C6_31 
REMARK    2 I    between atoms: C4_4  and  O1_26 
REMARK    3 I    between atoms: C1_5  and  O1_6 
REMARK    4 I    between atoms: O3_7  and  C3_60 
REMARK    5 I    between atoms: C6_8  and  C5_36 
REMARK    6 I    between atoms: C1_9  and  O1_26 
REMARK    7 I    between atoms: C4_10  and  O4_38 
REMARK    8 I    between atoms: S_12  and  O4_19 
REMARK    9 I    between atoms: O3_15  and  C1_16 
REMARK   10 I    between atoms: O3_15  and  C3_17 
REMARK   11 I    between atoms: C5_18  and  C6_21 
REMARK   12 I    between atoms: O4_19  and  C4_49 
REMARK   13 I    between atoms: C6_21  and  O6_40 
REMARK   14 I    between atoms: O2_22  and  C2_33 
REMARK   15 I    between atoms: O6_23  and  C6_31 
REMARK   16 I    between atoms: C5_27  and  C6_47 
REMARK   17 I    between atoms: O2_28  and  C2_45 
REMARK   18 I    between atoms: C3_34  and  O3_59 
REMARK   19 I    between atoms: O4_38  and  S_54 
REMARK   20 I    between atoms: N_39  and  C2_56 
REMARK      I    between atoms: N_39  and  C7_57 
REMARK      I    between atoms: C7_41  and  N_53 
REMARK   21 I    between atoms: C3_42  and  O3_44 
REMARK   22 I    between atoms: C2_43  and  N_53 
REMARK   23 I    between atoms: C1_46  and  O3_59 
ROOT
ATOM      1  C4  GCT d 811       1.035  43.008  77.307  0.00  0.00     0.195 C 
ATOM      2  C2  GCT d 811       3.067  43.904  78.256  0.00  0.00     0.204 C 
ATOM      3  C5  GCT d 811       1.103  44.057  76.194  0.00  0.00     0.257 C 
ATOM      4  C1  GCT d 811       3.422  44.660  76.988  0.00  0.00     0.292 C 
ATOM      5  O5  GCT d 811       2.475  44.468  75.930  0.00  0.00    -0.340 OA
ATOM      6  C3  GCT d 811       2.395  42.601  77.881  0.00  0.00     0.183 C 
ENDROOT
BRANCH   1   7
ATOM      7  O1  ASG d 810       0.513  41.726  76.169  0.00  0.00    -0.348 OA
BRANCH   7   8
ATOM      8  C1  ASG d 810      -0.328  40.762  76.796  0.00  0.00     0.286 C 
ATOM      9  C2  ASG d 810      -0.820  39.762  75.734  0.00  0.00     0.171 C 
ATOM     10  C3  ASG d 810      -1.669  38.703  76.418  0.00  0.00     0.185 C 
ATOM     11  C4  ASG d 810      -0.810  37.975  77.426  0.00  0.00     0.207 C 
ATOM     12  C5  ASG d 810      -0.165  38.972  78.408  0.00  0.00     0.181 C 
ATOM     13  O5  ASG d 810       0.509  40.040  77.710  0.00  0.00    -0.349 OA
BRANCH   9  14
ATOM     14  N   ASG d 810      -1.655  40.323  74.697  0.00  0.00    -0.349 N 
ATOM     15  C7  ASG d 810      -1.505  40.015  73.403  0.00  0.00     0.214 C 
ATOM     16  C8  ASG d 810      -2.639  40.390  72.511  0.00  0.00     0.117 C 
ATOM     17  O7  ASG d 810      -0.512  39.441  72.966  0.00  0.00    -0.274 OA
ATOM     18  H   ASG d 810      -2.363  40.958  74.952  0.00  0.00     0.163 HD
ENDBRANCH   9  14
BRANCH  10  19
ATOM     19  O3  ASG d 810      -2.190  37.768  75.450  0.00  0.00    -0.348 OA
BRANCH  19  20
ATOM     20  C1  GAD d 809      -3.456  37.714  75.026  0.00  0.00     0.298 C 
ATOM     21  C2  GAD d 809      -3.852  36.768  73.866  0.00  0.00     0.206 C 
ATOM     22  C3  GAD d 809      -5.376  36.728  73.749  0.00  0.00     0.177 C 
ATOM     23  C4  GAD d 809      -6.094  37.262  75.019  0.00  0.00     0.051 C 
ATOM     24  C5  GAD d 809      -5.506  37.433  76.218  0.00  0.00     0.147 C 
ATOM     25  O5  GAD d 809      -4.078  37.329  76.265  0.00  0.00    -0.311 OA
BRANCH  21  26
ATOM     26  O2  GAD d 809      -3.245  37.071  72.571  0.00  0.00    -0.388 OA
ATOM     27  H   GAD d 809      -2.280  37.092  72.663  0.00  0.00     0.210 HD
ENDBRANCH  21  26
BRANCH  22  28
ATOM     28  O3  GAD d 809      -5.831  35.401  73.374  0.00  0.00    -0.389 OA
ATOM     29  H   GAD d 809      -5.595  34.769  74.071  0.00  0.00     0.210 HD
ENDBRANCH  22  28
BRANCH  24  30
ATOM     30  C6  GAD d 809      -6.207  37.800  77.535  0.00  0.00     0.233 C 
ATOM     31  O6B GAD d 809      -5.499  37.886  78.598  0.00  0.00    -0.642 OA
ATOM     32  O6A GAD d 809      -7.422  38.023  77.466  0.00  0.00    -0.642 OA
ENDBRANCH  24  30
ENDBRANCH  19  20
ENDBRANCH  10  19
BRANCH  11  33
ATOM     33  O4  ASG d 810       0.158  37.246  76.651  0.00  0.00    -0.246 OA
BRANCH  33  34
ATOM     34  S   ASG d 810       0.227  35.618  76.788  0.00  0.00     0.252 S 
ATOM     35  OSC ASG d 810       1.662  35.219  76.216  0.00  0.00    -0.572 OA
ATOM     36  OSA ASG d 810       0.175  35.296  78.210  0.00  0.00    -0.572 OA
ATOM     37  OSB ASG d 810      -0.850  35.030  76.002  0.00  0.00    -0.572 OA
ENDBRANCH  33  34
ENDBRANCH  11  33
BRANCH  12  38
ATOM     38  C6  ASG d 810       0.832  38.303  79.342  0.00  0.00     0.199 C 
BRANCH  38  39
ATOM     39  O6  ASG d 810       1.500  39.423  79.875  0.00  0.00    -0.398 OA
ATOM     40  H   ASG d 810       2.179  39.127  80.501  0.00  0.00     0.209 HD
ENDBRANCH  38  39
ENDBRANCH  12  38
ENDBRANCH   7   8
ENDBRANCH   1   7
BRANCH   6  41
ATOM     41  O3  GCT d 811       2.198  41.810  79.037  0.00  0.00    -0.390 OA
ATOM     42  H   GCT d 811       1.767  40.977  78.789  0.00  0.00     0.210 HD
ENDBRANCH   6  41
BRANCH   3  43
ATOM     43  C6  GCT d 811       0.187  45.252  76.452  0.00  0.00     0.206 C 
ATOM     44  O6A GCT d 811       0.450  46.406  75.976  0.00  0.00    -0.646 OA
ATOM     45  O6B GCT d 811      -0.851  45.044  77.139  0.00  0.00    -0.646 OA
ENDBRANCH   3  43
BRANCH   2  46
ATOM     46  O2  GCT d 811       4.269  43.662  78.927  0.00  0.00    -0.388 OA
ATOM     47  H   GCT d 811       4.685  44.507  79.159  0.00  0.00     0.210 HD
ENDBRANCH   2  46
BRANCH   4  48
ATOM     48  O3  ASG d 812       3.587  46.030  77.311  0.00  0.00    -0.348 OA
BRANCH  48  49
ATOM     49  C3  ASG d 812       4.486  46.580  76.359  0.00  0.00     0.185 C 
ATOM     50  C4  ASG d 812       3.818  47.600  75.472  0.00  0.00     0.207 C 
ATOM     51  C5  ASG d 812       4.940  48.335  74.722  0.00  0.00     0.181 C 
ATOM     52  O5  ASG d 812       5.758  49.022  75.696  0.00  0.00    -0.349 OA
ATOM     53  C1  ASG d 812       6.524  48.045  76.371  0.00  0.00     0.282 C 
ATOM     54  C2  ASG d 812       5.545  47.234  77.220  0.00  0.00     0.171 C 
BRANCH  50  55
ATOM     55  O4  ASG d 812       3.078  48.435  76.366  0.00  0.00    -0.246 OA
BRANCH  55  56
ATOM     56  S   ASG d 812       1.901  49.452  75.900  0.00  0.00     0.252 S 
ATOM     57  OSB ASG d 812       0.976  49.611  76.977  0.00  0.00    -0.572 OA
ATOM     58  OSC ASG d 812       2.520  50.875  75.541  0.00  0.00    -0.572 OA
ATOM     59  OSA ASG d 812       1.195  48.962  74.753  0.00  0.00    -0.572 OA
ENDBRANCH  55  56
ENDBRANCH  50  55
BRANCH  51  60
ATOM     60  C6  ASG d 812       4.438  49.227  73.604  0.00  0.00     0.199 C 
BRANCH  60  61
ATOM     61  O6  ASG d 812       5.494  49.808  72.842  0.00  0.00    -0.398 OA
ATOM     62  H   ASG d 812       6.037  50.369  73.418  0.00  0.00     0.209 HD
ENDBRANCH  60  61
ENDBRANCH  51  60
BRANCH  53  63
ATOM     63  O1  ASG d 812       7.462  48.708  77.207  0.00  0.00    -0.369 OA
ATOM     64  H   ASG d 812       6.991  49.289  77.825  0.00  0.00     0.212 HD
ENDBRANCH  53  63
BRANCH  54  65
ATOM     65  N   ASG d 812       6.193  46.193  77.971  0.00  0.00    -0.349 N 
ATOM     66  C7  ASG d 812       6.545  46.353  79.252  0.00  0.00     0.214 C 
ATOM     67  C8  ASG d 812       6.913  45.061  79.947  0.00  0.00     0.117 C 
ATOM     68  O7  ASG d 812       6.581  47.474  79.773  0.00  0.00    -0.274 OA
ATOM     69  H   ASG d 812       6.384  45.335  77.528  0.00  0.00     0.163 HD
ENDBRANCH  54  65
ENDBRANCH  48  49
ENDBRANCH   4  48
TORSDOF 23
