REMARK 12 active torsions
REMARK    1  A    between atoms: atom6  and  atom_
REMARK    2  A    between atoms: atom7  and  atom_
REMARK    3  A    between atoms: atom1  and  atom3
REMARK    4  A    between atoms: atom2  and  atom_
REMARK    5  A    between atoms: atom2  and  atom6
REMARK    6  A    between atoms: atom3  and  atom5
REMARK    7  A    between atoms: atom1  and  atom4
REMARK    8  A    between atoms: atom2  and  atom1
REMARK    9  A    between atoms: atom2  and  atom8
REMARK    10  A    between atoms: atom5  and  atom_
REMARK    11  A    between atoms: atom1  and  atom_
REMARK    12  A    between atoms: atom4  and  atom_
ROOT
ATOM      1  C8  H1S d  69       4.564   1.464  10.757  0.00  0.00     0.157 C 
ATOM      2  C2  H1S d  69       4.886  -0.511  12.699  0.00  0.00     0.181 C 
ATOM      3  O5  H1S d  69       4.652   0.871  13.202  0.00  0.00    -0.350 OA
ATOM      4  C10 H1S d  69       4.938   1.949  12.197  0.00  0.00     0.278 C 
ATOM      5  C4  H1S d  69       5.601   0.436  10.315  0.00  0.00     0.173 C 
ATOM      6  C1  H1S d  69       5.861  -0.551  11.468  0.00  0.00     0.186 C 
ENDROOT
BRANCH   1  35
ATOM     35  N14 H1S d  69       3.227   0.826  10.697  0.00  0.00    -0.210 NA
ATOM     36  H   H1S d  69       2.599   1.345  11.310  0.00  0.00     0.140 HD
BRANCH  35  37
ATOM     37  S20 H1S d  69       2.557   0.780   9.200  0.00  0.00     0.156 S 
ATOM     38  O30 H1S d  69       2.808   1.967   8.382  0.00  0.00    -0.296 OA
ATOM     39  H   H1S d  69       2.381   1.860   7.518  0.00  0.00     0.231 HD
ATOM     40  O29 H1S d  69       3.094  -0.394   8.446  0.00  0.00    -0.296 OA
ATOM     41  H   H1S d  69       2.697  -0.419   7.561  0.00  0.00     0.231 HD
ATOM     42  O28 H1S d  69       1.088   0.643   9.283  0.00  0.00    -0.296 OA
ATOM     43  H   H1S d  69       0.715   0.618   8.388  0.00  0.00     0.231 HD
ENDBRANCH  35  37
ENDBRANCH   1  35
BRANCH   2  26
ATOM     26  C6  H1S d  69       5.357  -1.412  13.851  0.00  0.00     0.226 C 
BRANCH  26  27
ATOM     27  O11 H1S d  69       4.491  -1.218  15.031  0.00  0.00    -0.261 OA
ATOM     28  S16 H1S d  69       4.843  -0.462  16.248  0.00  0.00     0.240 S 
ATOM     29  O22 H1S d  69       6.216   0.169  16.068  0.00  0.00    -0.579 OA
ATOM     30  O21 H1S d  69       3.866   0.646  16.509  0.00  0.00    -0.579 OA
BRANCH  28  31
ATOM     31  O23 H1S d  69       4.806  -1.365  17.455  0.00  0.00    -0.274 OA
ATOM     32  H   H1S d  69       5.427  -2.100  17.328  0.00  0.00     0.234 HD
ENDBRANCH  28  31
ENDBRANCH  26  27
ENDBRANCH   2  26
BRANCH   4  44
ATOM     44  O15 H1S d  69       4.531   3.398  12.506  0.00  0.00    -0.369 OA
ATOM     45  H   H1S d  69       4.782   3.970  11.764  0.00  0.00     0.212 HD
ENDBRANCH   4  44
BRANCH   5  33
ATOM     33  O9  H1S d  69       6.845   1.022   9.812  0.00  0.00    -0.391 OA
ATOM     34  H   H1S d  69       6.644   1.637   9.089  0.00  0.00     0.210 HD
ENDBRANCH   5  33
BRANCH   6   7
ATOM      7  O3  H1S d  69       5.934  -1.811  10.793  0.00  0.00    -0.348 OA
BRANCH   7   8
ATOM      8  C7  H1S d  69       4.888  -2.284   9.902  0.00  0.00     0.300 C 
ATOM      9  O13 H1S d  69       4.193  -3.274  10.733  0.00  0.00    -0.311 OA
ATOM     10  C19 H1S d  69       4.922  -4.405  11.046  0.00  0.00     0.144 C 
ATOM     11  C24 H1S d  69       6.115  -4.761  10.366  0.00  0.00     0.051 C 
ATOM     12  C17 H1S d  69       6.676  -3.889   9.195  0.00  0.00     0.179 C 
ATOM     13  C12 H1S d  69       5.605  -2.890   8.683  0.00  0.00     0.232 C 
ATOM     14  C27 H1S d  69       4.381  -5.297  12.173  0.00  0.00     0.200 C 
ATOM     15  O34 H1S d  69       5.016  -6.341  12.445  0.00  0.00    -0.645 OA
ATOM     18  O25 H1S d  69       7.848  -3.147   9.549  0.00  0.00    -0.389 OA
ATOM     19  H   H1S d  69       8.531  -3.756   9.872  0.00  0.00     0.210 HD
BRANCH  13  20
ATOM     20  O18 H1S d  69       4.653  -3.561   7.829  0.00  0.00    -0.250 OA
ATOM     21  S26 H1S d  69       4.875  -4.035   6.470  0.00  0.00     0.241 S 
ATOM     22  O31 H1S d  69       5.556  -3.015   5.608  0.00  0.00    -0.579 OA
ATOM     23  O32 H1S d  69       5.696  -5.288   6.443  0.00  0.00    -0.579 OA
BRANCH  21  24
ATOM     24  O33 H1S d  69       3.488  -4.216   6.029  0.00  0.00    -0.274 OA
ATOM     25  H   H1S d  69       3.021  -3.367   6.073  0.00  0.00     0.234 HD
ENDBRANCH  21  24
ENDBRANCH  13  20
BRANCH  14  16
ATOM     16  O35 H1S d  69       3.329  -4.931  12.761  0.00  0.00    -0.771 OA
ATOM     17  H   H1S d  69       2.903  -4.136  12.507  0.00  0.00     0.167 HD
ENDBRANCH  14  16
ENDBRANCH   7   8
ENDBRANCH   6   7
TORSDOF 12
