REMARK  10 active torsions:
REMARK  status: ('A' for Active; 'I' for Inactive)
REMARK    1 I    between atoms: O6_1  and  C6_13 
REMARK    2 I    between atoms: C4_2  and  O4_25 
REMARK    3 I    between atoms: N2_3  and  C2_6 
REMARK      I    between atoms: N2_3  and  C7_14 
REMARK    4 I    between atoms: O3_4  and  C3_12 
REMARK    5 I    between atoms: O3_8  and  C1_26 
REMARK    6 I    between atoms: O3_8  and  C3_22 
REMARK    7 I    between atoms: O1_10  and  C1_23 
REMARK    8 I    between atoms: C6_13  and  C5_21 
REMARK    9 I    between atoms: C2_16  and  O2_19 
REMARK   10 I    between atoms: C6_17  and  C5_20 
ROOT
ATOM      1  C4  NGA d 901       8.246  43.362  30.202  0.00  0.00     0.180 C 
ATOM      2  C2  NGA d 901       8.386  40.920  30.982  0.00  0.00     0.171 C 
ATOM      3  O5  NGA d 901      10.440  42.199  30.432  0.00  0.00    -0.349 OA
ATOM      4  C5  NGA d 901       9.657  43.239  29.634  0.00  0.00     0.179 C 
ATOM      5  C3  NGA d 901       7.575  41.943  30.165  0.00  0.00     0.183 C 
ATOM      6  C1  NGA d 901       9.808  40.836  30.403  0.00  0.00     0.282 C 
ENDROOT
BRANCH   5   7
ATOM      7  O3  NGA d 901       6.246  41.952  30.721  0.00  0.00    -0.348 OA
BRANCH   7   8
ATOM      8  C1  GCD d 900       5.166  41.469  29.961  0.00  0.00     0.298 C 
ATOM      9  O5  GCD d 900       4.976  42.455  28.807  0.00  0.00    -0.311 OA
ATOM     10  C5  GCD d 900       3.853  42.120  27.839  0.00  0.00     0.147 C 
ATOM     11  C4  GCD d 900       2.791  41.395  28.292  0.00  0.00     0.051 C 
ATOM     12  C3  GCD d 900       2.763  40.988  29.780  0.00  0.00     0.177 C 
ATOM     13  C2  GCD d 900       3.899  41.512  30.743  0.00  0.00     0.206 C 
BRANCH  10  14
ATOM     14  C6  GCD d 900       4.023  42.597  26.421  0.00  0.00     0.233 C 
ATOM     15  O6A GCD d 900       3.200  42.143  25.543  0.00  0.00    -0.642 OA
ATOM     16  O6B GCD d 900       5.004  43.412  26.313  0.00  0.00    -0.642 OA
ENDBRANCH  10  14
BRANCH  12  17
ATOM     17  O3  GCD d 900       1.564  41.161  30.531  0.00  0.00    -0.389 OA
ATOM     18  H   GCD d 900       0.807  40.859  30.005  0.00  0.00     0.210 HD
ENDBRANCH  12  17
BRANCH  13  19
ATOM     19  O2  GCD d 900       4.008  40.587  31.880  0.00  0.00    -0.388 OA
ATOM     20  H   GCD d 900       4.193  39.693  31.553  0.00  0.00     0.210 HD
ENDBRANCH  13  19
ENDBRANCH   7   8
ENDBRANCH   5   7
BRANCH   1  21
ATOM     21  O4  NGA d 901       8.139  43.813  31.508  0.00  0.00    -0.390 OA
ATOM     22  H   NGA d 901       8.555  43.172  32.106  0.00  0.00     0.210 HD
ENDBRANCH   1  21
BRANCH   2  23
ATOM     23  N2  NGA d 901       7.645  39.587  30.941  0.00  0.00    -0.349 N 
ATOM     24  C7  NGA d 901       7.089  39.100  32.167  0.00  0.00     0.214 C 
ATOM     25  C8  NGA d 901       6.348  37.787  31.990  0.00  0.00     0.117 C 
ATOM     26  O7  NGA d 901       7.185  39.694  33.278  0.00  0.00    -0.274 OA
ATOM     27  H   NGA d 901       7.553  39.080  30.102  0.00  0.00     0.163 HD
ENDBRANCH   2  23
BRANCH   4  28
ATOM     28  C6  NGA d 901      10.362  44.592  29.682  0.00  0.00     0.198 C 
BRANCH  28  29
ATOM     29  O6  NGA d 901      11.780  44.505  29.345  0.00  0.00    -0.398 OA
ATOM     30  H   NGA d 901      12.178  45.388  29.391  0.00  0.00     0.209 HD
ENDBRANCH  28  29
ENDBRANCH   4  28
BRANCH   6  31
ATOM     31  O1  NGA d 901      10.577  39.910  31.153  0.00  0.00    -0.369 OA
ATOM     32  H   NGA d 901      10.153  39.038  31.122  0.00  0.00     0.212 HD
ENDBRANCH   6  31
TORSDOF 10
