REMARK  0 active torsions:
REMARK  status: ('A' for Active; 'I' for Inactive)
REMARK       I    between atoms: O28_1  and  S20_3 
REMARK       I    between atoms: N14_2  and  C8_22 
REMARK       I    between atoms: N14_2  and  S20_3 
REMARK       I    between atoms: S20_3  and  O29_8 
REMARK       I    between atoms: S20_3  and  O30_5 
REMARK       I    between atoms: C7_4  and  O3_15 
REMARK       I    between atoms: C4_7  and  O9_23 
REMARK       I    between atoms: C12_9  and  O18_29 
REMARK       I    between atoms: C1_10  and  O3_15 
REMARK       I    between atoms: C2_14  and  C6_31 
REMARK       I    between atoms: S16_16  and  O11_20 
REMARK       I    between atoms: S16_16  and  O23_25 
REMARK       I    between atoms: O15_17  and  C10_30 
REMARK       I    between atoms: O35_18  and  C27_32 
REMARK       I    between atoms: O11_20  and  C6_31 
REMARK       I    between atoms: C17_24  and  O25_28 
REMARK       I    between atoms: C19_27  and  C27_32 
REMARK       I    between atoms: O18_29  and  S26_33 
REMARK       I    between atoms: S26_33  and  O31_35 
ROOT
ATOM      1  O28 H1S d 601      30.789  10.196   9.188  0.00  0.00    -0.296 OA
ATOM      2  N14 H1S d 601      31.554   9.961  11.622  0.00  0.00    -0.210 NA
ATOM      3  S20 H1S d 601      31.880   9.642  10.056  0.00  0.00     0.156 S 
ATOM      4  C7  H1S d 601      26.682  11.846  14.384  0.00  0.00     0.300 C 
ATOM      5  O30 H1S d 601      31.980   8.160   9.851  0.00  0.00    -0.296 OA
ATOM      6  O33 H1S d 601      22.585  13.480  15.688  0.00  0.00    -0.579 OA
ATOM      7  C4  H1S d 601      29.742  10.599  13.146  0.00  0.00     0.173 C 
ATOM      8  O29 H1S d 601      33.180  10.288   9.678  0.00  0.00    -0.296 OA
ATOM      9  C12 H1S d 601      26.074  12.411  15.670  0.00  0.00     0.232 C 
ATOM     10  C1  H1S d 601      28.263  10.364  13.460  0.00  0.00     0.186 C 
ATOM     11  C24 H1S d 601      27.838  14.157  15.345  0.00  0.00     0.051 C 
ATOM     12  O5  H1S d 601      28.409   8.150  12.477  0.00  0.00    -0.350 OA
ATOM     13  O34 H1S d 601      29.335  15.608  13.491  0.00  0.00    -0.645 OA
ATOM     14  C2  H1S d 601      28.042   8.863  13.671  0.00  0.00     0.181 C 
ATOM     15  O3  H1S d 601      27.900  11.106  14.653  0.00  0.00    -0.348 OA
ATOM     16  S16 H1S d 601      24.295   9.044  13.077  0.00  0.00     0.240 S 
ATOM     17  O15 H1S d 601      30.607   7.803  13.225  0.00  0.00    -0.369 OA
ATOM     18  O35 H1S d 601      28.226  14.732  11.792  0.00  0.00    -0.771 OA
ATOM     19  O32 H1S d 601      24.190  13.779  17.512  0.00  0.00    -0.579 OA
ATOM     20  O11 H1S d 601      25.715   8.985  12.903  0.00  0.00    -0.261 OA
ATOM     21  O22 H1S d 601      24.064   7.745  13.786  0.00  0.00    -0.579 OA
ATOM     22  C8  H1S d 601      30.124   9.783  11.910  0.00  0.00     0.157 C 
ATOM     23  O9  H1S d 601      29.953  11.989  12.886  0.00  0.00    -0.391 OA
ATOM     24  C17 H1S d 601      27.098  13.302  16.376  0.00  0.00     0.179 C 
ATOM     25  O23 H1S d 601      23.852   9.183  11.649  0.00  0.00    -0.274 OA
ATOM     26  O13 H1S d 601      26.930  12.933  13.474  0.00  0.00    -0.311 OA
ATOM     27  C19 H1S d 601      27.717  13.924  13.978  0.00  0.00     0.144 C 
ATOM     28  O25 H1S d 601      28.045  12.487  17.074  0.00  0.00    -0.389 OA
ATOM     29  O18 H1S d 601      24.933  13.197  15.313  0.00  0.00    -0.250 OA
ATOM     30  C10 H1S d 601      29.802   8.305  12.154  0.00  0.00     0.278 C 
ATOM     31  C6  H1S d 601      26.567   8.597  13.986  0.00  0.00     0.226 C 
ATOM     32  C27 H1S d 601      28.484  14.827  13.009  0.00  0.00     0.200 C 
ATOM     33  S26 H1S d 601      23.884  13.001  16.267  0.00  0.00     0.241 S 
ATOM     34  O21 H1S d 601      24.184  10.327  13.848  0.00  0.00    -0.579 OA
ATOM     35  O31 H1S d 601      23.774  11.543  16.600  0.00  0.00    -0.274 OA
ATOM     36  H   H1S d 601      30.725  11.155   9.321  0.00  0.00     0.231 HD
ATOM     37  H   H1S d 601      32.094   9.327  12.211  0.00  0.00     0.140 HD
ATOM     38  H   H1S d 601      31.139   7.742  10.095  0.00  0.00     0.231 HD
ATOM     39  H   H1S d 601      33.115  11.247   9.811  0.00  0.00     0.231 HD
ATOM     40  H   H1S d 601      30.399   6.867  13.375  0.00  0.00     0.212 HD
ATOM     41  H   H1S d 601      27.576  14.125  11.497  0.00  0.00     0.167 HD
ATOM     42  H   H1S d 601      29.407  12.264  12.133  0.00  0.00     0.210 HD
ATOM     43  H   H1S d 601      24.067  10.073  11.329  0.00  0.00     0.234 HD
ATOM     44  H   H1S d 601      28.505  11.913  16.442  0.00  0.00     0.210 HD
ATOM     45  H   H1S d 601      23.063  11.412  17.247  0.00  0.00     0.234 HD
ENDROOT
TORSDOF 19
