@<TRIPOS>MOLECULE
1AXM_LIGAND_1.pdb
 139 143 0 0 0
SMALL
GASTEIGER

@<TRIPOS>ATOM
      1  C2       -16.8450   51.5400  175.9290 C.3   504  IDS504      0.1684
      2  C1       -23.7280   56.1230  175.9270 C.3   502  IDS502      0.1886
      3  C1       -10.5480   48.7560  172.5560 C.3   506  IDS506      0.1916
      4  O6S      -14.5050   45.3250  169.2950 O.2   505  SGN505     -0.1181
      5  O4       -21.0600   56.0150  173.6700 O.3   502  IDS502     -0.3406
      6  C2       -13.6290   47.7260  175.4840 C.3   505  SGN505      0.1078
      7  O3S      -14.5880   48.1350  179.1860 O.3   505  SGN505     -0.2626
      8  O3       -18.7230   50.0790  175.3350 O.3   504  IDS504     -0.3863
      9  S1       -14.4230   47.3220  178.0340 S.3   505  SGN505     -0.0198
     10  C6       -20.4530   57.8480  175.9140 C.2   502  IDS502      0.3367
     11  O3       -24.1170   57.9620  173.5830 O.3   502  IDS502     -0.3863
     12  C2       -19.4100   55.3330  172.0350 C.3   503  SGN503      0.1078
     13  O1S       -8.6160   49.1850  168.5050 O.2   506  IDS506     -0.1181
     14  O4S      -12.8130   44.0320  170.4360 O.2   505  SGN505     -0.1181
     15  O1       -24.5750   57.1990  176.2320 O.3   502  IDS502     -0.3648
     16  O3        -8.8350   51.3240  171.7320 O.3   506  IDS506     -0.3863
     17  O62      -16.9140   49.3580  171.1270 O.2   504  IDS504     -0.2480
     18  O5       -18.8110   56.3600  174.1240 O.3   503  SGN503     -0.3413
     19  C2       -23.9490   55.7520  174.4640 C.3   502  IDS502      0.1682
     20  O5       -16.1550   51.7610  173.6030 O.3   504  IDS504     -0.3314
     21  C2        -9.9890   49.2610  171.2180 C.3   506  IDS506      0.1684
     22  O4        -7.0660   48.2100  171.7740 O.3   506  IDS506     -0.3860
     23  S2       -15.4250   56.8490  175.8730 S.O2  503  SGN503      0.2076
     24  O2       -23.3040   54.5300  174.2230 O.3   502  IDS502     -0.2047
     25  O3S      -24.5970   52.6740  173.4790 O.2   502  IDS502     -0.1181
     26  O3S      -16.0210   53.0620  178.1920 O.2   504  IDS504     -0.1181
     27  C1       -19.8060   56.3330  173.1310 C.3   503  SGN503      0.1795
     28  C1       -14.9520   47.9230  174.7700 C.3   505  SGN505      0.1795
     29  C5       -16.7660   50.5480  173.2260 C.3   504  IDS504      0.1863
     30  C5        -8.4750   48.8450  173.6180 C.3   506  IDS506      0.1859
     31  C3       -23.3360   56.7850  173.5140 C.3   502  IDS502      0.1175
     32  C3       -12.4630   48.2640  174.6320 C.3   505  SGN505      0.1055
     33  C6        -7.6910   48.1380  174.7080 C.2   506  IDS506      0.3367
     34  S1       -20.2730   56.4040  169.7870 S.3   503  SGN503     -0.0198
     35  O5S      -15.1330   43.9100  171.1420 O.3   505  SGN505     -0.2311
     36  O4S      -15.4070   56.6400  177.2810 O.2   503  SGN503     -0.1181
     37  O6S      -15.9690   58.1170  175.5780 O.3   503  SGN503     -0.2311
     38  C6       -16.2360   50.0810  171.8600 C.2   504  IDS504      0.3367
     39  N        -13.7240   48.2840  176.8530 N.3   505  SGN505     -0.1845
     40  O1S      -15.6770   46.8250  177.5080 O.3   505  SGN505     -0.2626
     41  C5       -13.8820   47.8080  172.6920 C.3   505  SGN505      0.1159
     42  O62      -19.8930   58.8470  175.5060 O.3   502  IDS502     -0.4788
     43  S         -9.6440   48.2200  168.7470 S.O2  506  IDS506      0.2080
     44  O2        -9.8070   48.1780  170.3270 O.3   506  IDS506     -0.2047
     45  O61      -15.1190   50.4020  171.4750 O.3   504  IDS504     -0.4788
     46  C6       -14.0850   47.1830  171.3500 C.3   505  SGN505      0.1076
     47  O2S      -22.2780   52.8660  172.8280 O.2   502  IDS502     -0.1181
     48  O2S      -13.7790   52.2300  177.9790 O.2   504  IDS504     -0.1181
     49  O1S      -20.5540   57.6950  170.3860 O.3   503  SGN503     -0.2626
     50  O4       -11.5970   47.8850  172.3040 O.3   505  SGN505     -0.3401
     51  O62       -6.5930   48.5250  175.0690 O.3   506  IDS506     -0.4788
     52  C5       -21.8370   57.4640  175.4100 C.3   502  IDS502      0.1863
     53  O61      -19.8720   57.1710  176.7270 O.2   502  IDS502     -0.2480
     54  S        -23.5380   53.5420  173.0330 S.O2  502  IDS502      0.2080
     55  O2S       -9.2410   46.9150  168.3050 O.2   506  IDS506     -0.1181
     56  C1       -16.7910   52.4250  174.7000 C.3   504  IDS504      0.1916
     57  O5        -9.5350   48.0410  173.2170 O.3   506  IDS506     -0.3314
     58  C4       -21.8890   57.1200  173.9230 C.3   502  IDS502      0.1267
     59  O3       -18.6160   53.1070  171.6080 O.3   503  SGN503     -0.3874
     60  O4       -15.2710   49.2820  174.6420 O.3   504  IDS504     -0.3406
     61  C4       -18.1630   54.0610  173.7440 C.3   503  SGN503      0.1176
     62  O2S      -13.4660   46.2660  178.2680 O.3   505  SGN505     -0.2626
     63  S2       -14.0880   44.7040  170.5450 S.O2  505  SGN505      0.2076
     64  O4       -18.0930   52.8350  174.3960 O.3   503  SGN503     -0.3401
     65  O6       -16.4400   55.8570  175.2460 O.3   503  SGN503     -0.2131
     66  C3       -17.3250   50.0750  175.5960 C.3   504  IDS504      0.1176
     67  C6       -17.6350   55.4130  175.8510 C.3   503  SGN503      0.1076
     68  C4        -7.6790   49.3150  172.3960 C.3   506  IDS506      0.1202
     69  O61       -8.1650   47.1570  175.2640 O.2   506  IDS506     -0.2480
     70  C3       -19.1710   53.9460  172.6030 C.3   503  SGN503      0.1055
     71  C4       -12.5430   47.4990  173.2790 C.3   505  SGN505      0.1176
     72  O6       -13.8480   45.8300  171.5400 O.3   505  SGN505     -0.2131
     73  N        -20.4110   55.3090  170.9830 N.3   503  SGN503     -0.1845
     74  O3       -11.2430   47.9700  175.3000 O.3   505  SGN505     -0.3874
     75  C5       -18.6220   55.1300  174.7510 C.3   503  SGN503      0.1159
     76  S        -15.1840   51.9460  177.9550 S.O2  504  IDS504      0.2080
     77  O3S      -10.9360   48.6230  168.2350 O.3   506  IDS506     -0.2311
     78  O2       -15.5480   51.5170  176.5220 O.3   504  IDS504     -0.2047
     79  O5S      -14.1270   56.5750  175.2640 O.2   503  SGN503     -0.1181
     80  O5       -14.8970   47.3140  173.5110 O.3   505  SGN505     -0.3413
     81  C3        -8.6120   49.9680  171.3540 C.3   506  IDS506      0.1172
     82  O1S      -15.5100   50.8520  178.7950 O.3   504  IDS504     -0.2311
     83  C4       -16.6400   49.5260  174.3540 C.3   504  IDS504      0.1267
     84  O2S      -18.9130   56.3300  169.2550 O.3   503  SGN503     -0.2626
     85  O3S      -21.2920   55.9970  168.8460 O.3   503  SGN503     -0.2626
     86  O5       -22.3760   56.4100  176.1830 O.3   502  IDS502     -0.3316
     87  O1S      -23.9270   54.3290  171.8960 O.3   502  IDS502     -0.2311
     88 H         -17.5642   51.9453  176.6097 H     504  IDS504      0.0699
     89 H         -23.9701   55.2967  176.5622 H     502  IDS502      0.0937
     90 H         -10.8830   49.5803  173.1503 H     506  IDS506      0.0939
     91 H         -13.4101   46.6857  175.6051 H     505  SGN505      0.0554
     92 H         -15.2347   48.8333  178.9990 H     505  SGN505      0.2439
     93 H         -19.1954   50.4245  176.1086 H     504  IDS504      0.2100
     94 H         -25.0304   57.7595  173.3267 H     502  IDS502      0.2100
     95 H         -18.4846   55.6602  171.6089 H     503  SGN503      0.0554
     96 H         -24.3605   57.9518  175.6592 H     502  IDS502      0.2126
     97 H          -9.4206   51.7478  171.0852 H     506  IDS506      0.2100
     98 H         -25.0034   55.7032  174.2888 H     502  IDS502      0.0699
     99 H         -10.7069   49.9666  170.8553 H     506  IDS506      0.0699
    100 H          -6.4701   47.7742  172.4033 H     506  IDS506      0.2100
    101 H         -19.8865   57.3099  172.7021 H     503  SGN503      0.0927
    102 H         -15.7229   47.4674  175.3557 H     505  SGN505      0.0927
    103 H         -17.8174   50.6851  173.0822 H     504  IDS504      0.0742
    104 H          -8.8117   49.7540  174.0711 H     506  IDS506      0.0741
    105 H         -23.3219   56.3864  172.5211 H     502  IDS502      0.0649
    106 H         -12.5136   49.3215  174.4771 H     505  SGN505      0.0638
    107 H         -15.3444   43.1635  170.5599 H     505  SGN505      0.2469
    108 H         -16.8265   58.2120  176.0213 H     503  SGN503      0.2469
    109 H         -14.2709   49.1430  176.7955 H     505  SGN505      0.1485
    110 H         -16.2855   47.5672  177.3675 H     505  SGN505      0.2439
    111 H         -13.9173   48.8737  172.6028 H     505  SGN505      0.0648
    112 H         -20.3149   59.3957  174.8744 H     502  IDS502      0.2951
    113 H         -14.5791   50.9507  172.0092 H     504  IDS504      0.2951
    114 H         -13.3958   47.5885  170.6390 H     505  SGN505      0.0611
    115 H         -15.0670   47.3673  170.9672 H     505  SGN505      0.0611
    116 H         -19.8454   57.9242  171.0075 H     503  SGN503      0.2439
    117 H          -6.2032   49.2738  174.6624 H     506  IDS506      0.2951
    118 H         -22.4396   58.3404  175.5269 H     502  IDS502      0.0741
    119 H         -16.1926   53.2896  174.8980 H     504  IDS504      0.0939
    120 H         -21.5495   57.9599  173.3537 H     502  IDS502      0.0656
    121 H         -19.2420   53.0204  170.8721 H     503  SGN503      0.2100
    122 H         -17.2079   54.3369  173.3484 H     503  SGN503      0.0650
    123 H         -12.6451   46.6455  178.6187 H     505  SGN505      0.2439
    124 H         -17.0808   49.4644  176.4401 H     504  IDS504      0.0649
    125 H         -18.0194   56.1717  176.5002 H     503  SGN503      0.0611
    126 H         -17.4578   54.5330  176.4333 H     503  SGN503      0.0611
    127 H          -6.9503   50.0220  172.7337 H     506  IDS506      0.0652
    128 H         -20.0981   53.5356  172.9450 H     503  SGN503      0.0638
    129 H         -12.3578   46.4698  173.5055 H     505  SGN505      0.0650
    130 H         -21.3200   55.4509  171.4234 H     503  SGN503      0.1485
    131 H         -11.1786   47.0138  175.4497 H     505  SGN505      0.2100
    132 H         -19.5202   54.7174  175.1607 H     503  SGN503      0.0648
    133 H         -11.1532   49.5085  168.5662 H     506  IDS506      0.2469
    134 H          -8.1244   49.8864  170.4051 H     506  IDS506      0.0649
    135 H         -15.2971   51.0757  179.7145 H     504  IDS504      0.2469
    136 H         -17.1010   48.6083  174.0537 H     504  IDS504      0.0656
    137 H         -18.2836   56.6157  169.9356 H     503  SGN503      0.2439
    138 H         -22.1648   56.0705  169.2627 H     503  SGN503      0.2439
    139 H         -24.7752   54.7629  172.0780 H     502  IDS502      0.2469
@<TRIPOS>BOND
     1     1    56    1
     2     1    66    1
     3     1    78    1
     4     2    19    1
     5     2    15    1
     6     2    86    1
     7     3    50    1
     8     3    21    1
     9     3    57    1
    10     4    63    2
    11     5    58    1
    12     5    27    1
    13     6    28    1
    14     6    32    1
    15     6    39    1
    16     7     9    1
    17     8    66    1
    18     9    39    1
    19     9    40    1
    20     9    62    1
    21    10    52    1
    22    10    53    2
    23    10    42    1
    24    11    31    1
    25    12    27    1
    26    12    70    1
    27    12    73    1
    28    13    43    2
    29    14    63    2
    30    16    81    1
    31    17    38    2
    32    18    27    1
    33    18    75    1
    34    19    31    1
    35    19    24    1
    36    20    56    1
    37    20    29    1
    38    21    81    1
    39    21    44    1
    40    22    68    1
    41    23    65    1
    42    23    36    2
    43    23    79    2
    44    23    37    1
    45    24    54    1
    46    25    54    2
    47    26    76    2
    48    28    60    1
    49    28    80    1
    50    29    83    1
    51    29    38    1
    52    30    68    1
    53    30    33    1
    54    30    57    1
    55    31    58    1
    56    32    71    1
    57    32    74    1
    58    33    69    2
    59    33    51    1
    60    34    73    1
    61    34    49    1
    62    34    84    1
    63    34    85    1
    64    35    63    1
    65    38    45    1
    66    41    71    1
    67    41    46    1
    68    41    80    1
    69    43    44    1
    70    43    55    2
    71    43    77    1
    72    46    72    1
    73    47    54    2
    74    48    76    2
    75    50    71    1
    76    52    58    1
    77    52    86    1
    78    54    87    1
    79    56    64    1
    80    59    70    1
    81    60    83    1
    82    61    70    1
    83    61    75    1
    84    61    64    1
    85    63    72    1
    86    65    67    1
    87    66    83    1
    88    67    75    1
    89    68    81    1
    90    76    78    1
    91    76    82    1
    92     1    88    1
    93     2    89    1
    94     3    90    1
    95     6    91    1
    96     7    92    1
    97     8    93    1
    98    11    94    1
    99    12    95    1
   100    15    96    1
   101    16    97    1
   102    19    98    1
   103    21    99    1
   104    22   100    1
   105    27   101    1
   106    28   102    1
   107    29   103    1
   108    30   104    1
   109    31   105    1
   110    32   106    1
   111    35   107    1
   112    37   108    1
   113    39   109    1
   114    40   110    1
   115    41   111    1
   116    42   112    1
   117    45   113    1
   118    46   114    1
   119    46   115    1
   120    49   116    1
   121    51   117    1
   122    52   118    1
   123    56   119    1
   124    58   120    1
   125    59   121    1
   126    61   122    1
   127    62   123    1
   128    66   124    1
   129    67   125    1
   130    67   126    1
   131    68   127    1
   132    70   128    1
   133    71   129    1
   134    73   130    1
   135    74   131    1
   136    75   132    1
   137    77   133    1
   138    81   134    1
   139    82   135    1
   140    83   136    1
   141    84   137    1
   142    85   138    1
   143    87   139    1
