@<TRIPOS>MOLECULE
1AXM_LIGAND_2_uncharged.pdb
 133 137 0 0 0
SMALL
GASTEIGER

@<TRIPOS>ATOM
      1  C5        21.0570   21.0100  109.2090 C.3   405  SGN405      0.1154
      2  C5        30.3200   22.3370  109.1890 C.3   403  SGN403      0.1158
      3  C4        24.4260   22.9290  110.1150 C.3   404  IDS404      0.1267
      4  O4        27.9780   22.7970  109.4720 O.3   403  SGN403     -0.3401
      5  O6S       30.6320   18.8660  112.0620 O.2   403  SGN403     -0.3452
      6  O61       30.9020   25.2730  110.1320 O.2   402  IDS402     -0.2480
      7  C4        34.4780   28.6400  108.6240 C.3   401  SGN401      0.1176
      8  O6        32.6850   30.7840  108.1760 O.3   401  SGN401     -0.2520
      9  C1        33.0350   27.3520  107.2040 C.3   402  IDS402      0.1915
     10  C2        33.0790   26.4780  105.9520 C.3   402  IDS402      0.1644
     11  C6        24.2270   21.4850  108.0740 C.2   404  IDS404      0.3367
     12  O3        35.1330   27.1130  110.3260 O.3   401  SGN401     -0.3874
     13  O1S       30.9210   21.1500  104.1260 O.3   403  SGN403     -0.0534
     14  N         36.9970   29.0440  111.5360 N.3   401  SGN401     -0.1775
     15  O4        23.5890   21.9860  110.7240 O.3   404  IDS404     -0.3406
     16  C2        35.9160   29.3950  110.5490 C.3   401  SGN401      0.1079
     17  S2        18.3180   22.8920  107.9100 S.3   405  SGN405     -0.0008
     18  O4        31.5150   24.0790  107.1430 O.3   402  IDS402     -0.3406
     19  C3        33.4920   25.0210  106.2230 C.3   402  IDS402      0.1174
     20  O6S       31.1370   32.5250  107.6380 O.2   401  SGN401     -0.3452
     21  S1        30.0760   22.2600  103.7640 S.3   403  SGN403      0.0767
     22  C3        25.3720   23.5580  111.1740 C.3   404  IDS404      0.1174
     23  O3        20.4140   19.5620  112.5560 O.3   405  SGN405     -0.3874
     24  S2        30.5710   18.7150  110.6510 S.3   403  SGN403     -0.0008
     25  C4        32.8260   24.4390  107.4640 C.3   402  IDS402      0.1267
     26  O4S       29.2250   18.3790  110.2090 O.2   403  SGN403     -0.3452
     27  C1        31.2670   22.7070  107.0120 C.3   403  SGN403      0.1795
     28  O62       32.7170   24.3640  110.7520 O.3   402  IDS402     -0.4788
     29  O3        34.8800   24.9960  106.4250 O.3   402  IDS402     -0.3863
     30  O1S       31.3900   26.5870  103.0120 O.2   402  IDS402     -0.3452
     31  S1        36.8130   29.3730  113.1820 S.3   401  SGN401      0.0767
     32  O4S       30.7350   30.2670  106.8960 O.2   401  SGN401     -0.3452
     33  O2S       29.9420   27.6350  104.5710 O.2   402  IDS402     -0.3452
     34  C2        26.6230   22.7170  111.4730 C.3   404  IDS404      0.1644
     35  O2        26.3150   21.8050  112.5350 O.3   404  IDS404     -0.2435
     36  O1S       22.9050   23.5630  114.1870 O.3   405  SGN405     -0.0534
     37  N         22.5600   21.4180  113.0910 N.3   405  SGN405     -0.1775
     38  S1        22.3050   22.2760  114.4280 S.3   405  SGN405      0.0767
     39  O61       23.7370   20.4240  108.4320 O.2   404  IDS404     -0.2480
     40  N         29.9130   23.1750  105.0830 N.3   403  SGN403     -0.1775
     41  O4S       18.5570   23.4080  106.6090 O.2   405  SGN405     -0.3452
     42  C1        36.3240   30.6040  109.6910 C.3   401  SGN401      0.1762
     43  C4        28.8970   22.2160  108.5930 C.3   403  SGN403      0.1176
     44  O4        34.3420   27.6370  107.6470 O.3   401  SGN401     -0.3401
     45  O62       23.9090   21.9430  106.9900 O.3   404  IDS404     -0.4788
     46  C3        28.8460   23.0100  107.2980 C.3   403  SGN403      0.1055
     47  O3S       22.9530   21.6130  115.5110 O.3   405  SGN405     -0.0534
     48  C6        32.1040   25.0090  109.9160 C.2   402  IDS402      0.3367
     49  C5        32.8130   25.4650  108.6210 C.3   402  IDS402      0.1863
     50  O5S       16.9100   22.6850  108.1480 O.2   405  SGN405     -0.3452
     51  S         31.2790   27.3640  104.2170 S.3   402  IDS402     -0.0004
     52  O3S       28.5360   20.9690  112.8040 O.2   404  IDS404     -0.3452
     53  C6        33.6750   30.6070  107.1990 C.3   401  SGN401      0.1035
     54  O5        31.3160   22.0030  108.2450 O.3   403  SGN403     -0.3413
     55  O5        26.1440   21.3220  109.4840 O.3   404  IDS404     -0.3314
     56  O3        25.8150   24.8050  110.6940 O.3   404  IDS404     -0.3863
     57  O3S       32.1100   28.5430  104.1900 O.3   402  IDS402     -0.2682
     58  O2S       20.8720   22.3480  114.5790 O.3   405  SGN405     -0.0534
     59  O3S       30.7100   23.0790  102.7880 O.3   403  SGN403     -0.0534
     60  O6        18.9880   21.4410  107.9560 O.3   405  SGN405     -0.2520
     61  O2S       26.7630   20.0120  114.0670 O.2   404  IDS404     -0.3452
     62  O4        19.6330   19.1730  109.9070 O.3   405  SGN405     -0.3865
     63  O1        37.4720   30.2940  108.8830 O.3   401  SGN401     -0.3656
     64  C4        20.1880   20.4210  110.3140 C.3   405  SGN405      0.1111
     65  O3        27.5910   22.8180  106.7180 O.3   403  SGN403     -0.3874
     66  O2S       36.4900   28.1260  113.8220 O.3   401  SGN401     -0.0534
     67  C2        21.6090   21.5620  111.9930 C.3   405  SGN405      0.1080
     68  C2        29.9220   22.5050  106.3670 C.3   403  SGN403      0.1081
     69  O2S       28.7290   21.8470  103.4190 O.3   403  SGN403     -0.0534
     70  C6        20.3650   21.1100  107.8230 C.3   405  SGN405      0.1035
     71  C3        35.5940   28.2300  109.5890 C.3   401  SGN401      0.1055
     72  C5        25.1770   22.2220  108.9910 C.3   404  IDS404      0.1863
     73  O5        35.2710   30.9860  108.8580 O.3   401  SGN401     -0.3416
     74  O1S       35.7400   30.3400  113.3170 O.3   401  SGN401     -0.0534
     75  O2        31.8070   26.4530  105.3660 O.3   402  IDS402     -0.2435
     76  O6S       18.9650   23.6990  108.9400 O.3   405  SGN405     -0.2682
     77  O1S       27.5660   22.2140  114.4910 O.3   404  IDS404     -0.2682
     78  O5        32.2700   26.7080  108.1910 O.3   402  IDS402     -0.3314
     79  C3        21.1290   20.1960  111.5120 C.3   405  SGN405      0.1051
     80  C1        22.2530   22.3730  110.8580 C.3   405  SGN405      0.1795
     81  O3S       38.0860   29.9080  113.6160 O.3   401  SGN401     -0.0534
     82  O5        21.5040   22.3310  109.6220 O.3   405  SGN405     -0.3414
     83  O5S       30.5650   30.7770  109.2080 O.3   401  SGN401     -0.2682
     84  O6        30.8840   20.0990  109.9400 O.3   403  SGN403     -0.2520
     85  S2        31.1900   31.1080  107.9560 S.3   401  SGN401     -0.0008
     86  C1        27.1850   21.9380  110.2510 C.3   404  IDS404      0.1915
     87  C6        30.6000   21.4150  110.3990 C.3   403  SGN403      0.1035
     88  O5S       31.5920   17.8270  110.1680 O.3   403  SGN403     -0.2682
     89  C5        34.8560   29.9840  107.9300 C.3   401  SGN401      0.1158
     90  S         27.3470   21.2030  113.5370 S.3   404  IDS404     -0.0004
     91  H         21.8750   20.3330  109.0750 H     405  SGN405      0.0648
     92  H         30.3580   23.3620  109.4940 H     403  SGN403      0.0648
     93  H         23.8680   23.7390  109.6940 H     404  IDS404      0.0656
     94  H         33.5600   28.7650  109.1590 H     401  SGN401      0.0650
     95  H         32.5690   28.2890  106.9810 H     402  IDS402      0.0939
     96  H         33.8190   26.9130  105.3130 H     402  IDS402      0.0698
     97  H         34.9320   26.3850  109.7180 H     401  SGN401      0.2100
     98  H         37.8370   29.5380  111.2340 H     401  SGN401      0.1487
     99  H         35.0500   29.6200  111.1350 H     401  SGN401      0.0554
    100  H         33.1870   24.4330  105.3830 H     402  IDS402      0.0649
    101  H         24.8050   23.6310  112.0780 H     404  IDS404      0.0649
    102  H         20.1060   18.6930  112.2560 H     405  SGN405      0.2100
    103  H         33.3800   23.5820  107.7860 H     402  IDS402      0.0656
    104  H         32.0490   22.3060  106.4010 H     403  SGN403      0.0927
    105  H         33.6190   24.1540  110.6120 H     402  IDS402      0.2951
    106  H         35.1050   25.5420  107.1950 H     402  IDS402      0.2100
    107  H         27.3970   23.4010  111.7510 H     404  IDS404      0.0698
    108  H         23.4790   21.6800  112.7330 H     405  SGN405      0.1487
    109  H         29.0250   23.6710  105.0030 H     403  SGN403      0.1487
    110  H         36.5680   31.4080  110.3540 H     401  SGN401      0.0925
    111  H         28.6650   21.1840  108.4290 H     403  SGN403      0.0650
    112  H         24.2740   22.7550  106.6990 H     404  IDS404      0.2951
    113  H         29.0060   24.0510  107.4870 H     403  SGN403      0.0638
    114  H         33.8450   25.5700  108.8840 H     402  IDS402      0.0742
    115  H         33.9530   31.5480  106.7720 H     401  SGN401      0.0610
    116  H         33.3340   29.9900  106.3940 H     401  SGN401      0.0610
    117  H         26.3210   24.6760  109.8760 H     404  IDS404      0.2100
    118  H         19.0400   19.3140  109.1520 H     405  SGN405      0.2100
    119  H         37.2560   29.5660  108.2800 H     401  SGN401      0.2125
    120  H         19.3750   21.0740  110.5530 H     405  SGN405      0.0646
    121  H         27.4540   21.8730  106.5500 H     403  SGN403      0.2100
    122  H         20.7470   22.0940  112.3370 H     405  SGN405      0.0554
    123  H         29.7270   21.4680  106.1900 H     403  SGN403      0.0554
    124  H         20.4500   20.1680  107.3220 H     405  SGN405      0.0610
    125  H         20.8460   21.8830  107.2600 H     405  SGN405      0.0610
    126  H         36.4850   27.9840  109.0490 H     401  SGN401      0.0638
    127  H         25.6790   22.9870  108.4360 H     404  IDS404      0.0742
    128  H         21.9580   19.5820  111.2280 H     405  SGN405      0.0638
    129  H         22.2300   23.4100  111.1220 H     405  SGN405      0.0927
    130  H         27.7990   21.1380  110.6070 H     404  IDS404      0.0939
    131  H         29.7410   21.3920  111.0360 H     403  SGN403      0.0610
    132  H         31.4400   21.7900  110.9450 H     403  SGN403      0.0610
    133  H         35.6470   29.7130  107.2620 H     401  SGN401      0.0648
@<TRIPOS>BOND
     1     1    64    1
     2     1    70    1
     3     1    82    1
     4     1    91    1
     5     2    43    1
     6     2    87    1
     7     2    54    1
     8     2    92    1
     9     3    22    1
    10     3    72    1
    11     3    15    1
    12     3    93    1
    13     4    43    1
    14     4    86    1
    15     5    24    2
    16     6    48    2
    17     7    71    1
    18     7    89    1
    19     7    44    1
    20     7    94    1
    21     8    53    1
    22     8    85    1
    23     9    44    1
    24     9    10    1
    25     9    78    1
    26     9    95    1
    27    10    19    1
    28    10    75    1
    29    10    96    1
    30    11    72    1
    31    11    39    2
    32    11    45    1
    33    12    71    1
    34    12    97    1
    35    13    21    1
    36    14    16    1
    37    14    31    1
    38    14    98    1
    39    15    80    1
    40    16    42    1
    41    16    71    1
    42    16    99    1
    43    17    60    1
    44    17    41    2
    45    17    50    2
    46    17    76    1
    47    18    25    1
    48    18    27    1
    49    19    25    1
    50    19    29    1
    51    19   100    1
    52    20    85    2
    53    21    40    1
    54    21    69    1
    55    21    59    1
    56    22    34    1
    57    22    56    1
    58    22   101    1
    59    23    79    1
    60    23   102    1
    61    24    84    1
    62    24    26    2
    63    24    88    1
    64    25    49    1
    65    25   103    1
    66    27    68    1
    67    27    54    1
    68    27   104    1
    69    28    48    1
    70    28   105    1
    71    29   106    1
    72    30    51    2
    73    31    74    1
    74    31    66    1
    75    31    81    1
    76    32    85    2
    77    33    51    2
    78    34    86    1
    79    34    35    1
    80    34   107    1
    81    35    90    1
    82    36    38    1
    83    37    67    1
    84    37    38    1
    85    37   108    1
    86    38    58    1
    87    38    47    1
    88    40    68    1
    89    40   109    1
    90    42    63    1
    91    42    73    1
    92    42   110    1
    93    43    46    1
    94    43   111    1
    95    45   112    1
    96    46    68    1
    97    46    65    1
    98    46   113    1
    99    48    49    1
   100    49    78    1
   101    49   114    1
   102    51    75    1
   103    51    57    1
   104    52    90    2
   105    53    89    1
   106    53   115    1
   107    53   116    1
   108    55    86    1
   109    55    72    1
   110    56   117    1
   111    60    70    1
   112    61    90    2
   113    62    64    1
   114    62   118    1
   115    63   119    1
   116    64    79    1
   117    64   120    1
   118    65   121    1
   119    67    80    1
   120    67    79    1
   121    67   122    1
   122    68   123    1
   123    70   124    1
   124    70   125    1
   125    71   126    1
   126    72   127    1
   127    73    89    1
   128    77    90    1
   129    79   128    1
   130    80    82    1
   131    80   129    1
   132    83    85    1
   133    84    87    1
   134    86   130    1
   135    87   131    1
   136    87   132    1
   137    89   133    1
