@<TRIPOS>MOLECULE
1AXM_LIGAND_3_uncharged.pdb
 133 137 0 0 0
SMALL
GASTEIGER

@<TRIPOS>ATOM
      1  C6       -17.1770    6.1530   47.2190 C.3   303  SGN303      0.1035
      2  O3       -11.8160    7.6300   47.0570 O.3   304  IDS304     -0.3863
      3  N        -15.2560   -3.6920   48.4520 N.3   301  SGN301     -0.1775
      4  C5       -16.5530    1.6910   45.1300 C.3   302  IDS302      0.1863
      5  O5       -12.9230   -3.2260   45.6350 O.3   301  SGN301     -0.3416
      6  C2       -13.8170    8.2120   48.2760 C.3   304  IDS304      0.1644
      7  C1       -14.4920    0.7200   44.7420 C.3   302  IDS302      0.1915
      8  C1       -11.4430   11.7220   48.1880 C.3   305  SGN305      0.1795
      9  S        -15.1180    8.6440   50.5420 S.3   304  IDS304     -0.0004
     10  C5       -13.5270    9.8680   45.9810 C.3   304  IDS304      0.1863
     11  O3S      -16.2520    7.9010   50.1170 O.3   304  IDS304     -0.2682
     12  O5       -10.8620   12.4230   47.0850 O.3   305  SGN305     -0.3414
     13  O2       -13.4350    2.1390   43.0860 O.3   302  IDS302     -0.2435
     14  O2       -14.2150    9.0370   49.3390 O.3   304  IDS304     -0.2435
     15  O1S      -14.2830    7.8920   51.4330 O.2   304  IDS304     -0.3452
     16  O5S       -7.3150   14.8500   45.4760 O.2   305  SGN305     -0.3452
     17  O4       -12.6010   11.0030   47.8190 O.3   304  IDS304     -0.3406
     18  O2S      -15.5300   -1.9290   50.1400 O.3   301  SGN301     -0.0534
     19  O5       -15.2230    1.6230   45.5380 O.3   302  IDS302     -0.3314
     20  O2S      -15.4990    9.8990   51.0630 O.2   304  IDS304     -0.3452
     21  O4S      -18.9480    7.6700   49.1230 O.2   303  SGN303     -0.3452
     22  O3       -13.2650   14.6450   49.6660 O.3   305  SGN305     -0.3874
     23  C4       -12.4080    9.9090   46.9870 C.3   304  IDS304      0.1267
     24  O4       -13.1670   15.3150   46.9760 O.3   305  SGN305     -0.3865
     25  O1S      -13.5890   -3.4190   50.2930 O.3   301  SGN301     -0.0534
     26  C4       -16.6270    2.4570   43.8500 C.3   302  IDS302      0.1267
     27  O4S       -9.6470   -0.8190   43.4690 O.2   301  SGN301     -0.3452
     28  O4       -14.6250    7.3000   46.2210 O.3   303  SGN303     -0.3401
     29  O5S      -10.0920   -1.9880   45.5230 O.2   301  SGN301     -0.3452
     30  O5       -14.7640    9.6160   46.5660 O.3   304  IDS304     -0.3314
     31  C3       -15.3850   -2.1720   46.5170 C.3   301  SGN301      0.1055
     32  C1       -13.6320   -3.9220   46.6280 C.3   301  SGN301      0.1762
     33  C3       -15.7800    1.7570   42.7560 C.3   302  IDS302      0.1174
     34  O3       -16.5460    0.7020   42.2210 O.3   302  IDS302     -0.3863
     35  O2S      -16.4650    6.8640   40.2830 O.3   303  SGN303     -0.0534
     36  O3       -14.3820    7.4910   43.3150 O.3   303  SGN303     -0.3874
     37  O1S      -17.7830    4.9700   40.8270 O.3   303  SGN303     -0.0534
     38  O62      -18.6130    2.4240   45.9850 O.2   302  IDS302     -0.2480
     39  O3       -16.1990   -1.2700   47.2320 O.3   301  SGN301     -0.3874
     40  O5S      -19.9120    8.6490   47.1620 O.2   303  SGN303     -0.3452
     41  C4       -12.1880   14.4490   47.5290 C.3   305  SGN305      0.1111
     42  C6       -12.9550   -1.9290   43.6490 C.3   301  SGN301      0.1035
     43  S        -12.7920    2.5480   41.7230 S.3   302  IDS302     -0.0004
     44  C5       -13.7620   -2.4640   44.8000 C.3   301  SGN301      0.1158
     45  S2       -19.3520    7.4600   47.7600 S.3   303  SGN303     -0.0008
     46  C6       -13.6250   11.0880   45.1850 C.2   304  IDS304      0.3367
     47  N        -12.3280   12.0030   50.4720 N.3   305  SGN305     -0.1775
     48  O6S      -20.1910    6.2830   47.5920 O.3   303  SGN303     -0.2682
     49  C1       -16.9500    4.8330   43.8340 C.3   303  SGN303      0.1795
     50  O6       -11.8810   -1.2520   44.1590 O.3   301  SGN301     -0.2520
     51  O61      -16.9720    2.4770   47.3040 O.3   302  IDS302     -0.4788
     52  O62      -12.6780   11.4820   44.5750 O.3   304  IDS304     -0.4788
     53  O4       -16.1110    3.7330   44.0960 O.3   302  IDS302     -0.3406
     54  C2       -14.4890   -2.9640   47.4600 C.3   301  SGN301      0.1079
     55  O3S      -15.7920    4.7050   39.5480 O.3   303  SGN303     -0.0534
     56  C3       -12.8650   13.6940   48.6920 C.3   305  SGN305      0.1051
     57  C5       -11.7290   13.4190   46.4850 C.3   305  SGN305      0.1154
     58  S2       -10.4620   -1.8200   44.1320 S.3   301  SGN301     -0.0008
     59  O61      -14.6650   11.7130   45.1340 O.2   304  IDS304     -0.2480
     60  S2        -8.5810   15.0290   44.7720 S.3   305  SGN305     -0.0008
     61  S1       -16.4560    5.4570   40.5360 S.3   303  SGN303      0.0767
     62  S1       -11.2210   11.4060   51.5070 S.3   305  SGN305      0.0767
     63  O3S      -13.1810    1.5450   40.8080 O.3   302  IDS302     -0.2682
     64  O5       -17.4750    5.4000   45.0230 O.3   303  SGN303     -0.3413
     65  O6S       -8.6220   14.2210   43.5650 O.3   305  SGN305     -0.2682
     66  O4S       -8.9180   16.4190   44.5530 O.2   305  SGN305     -0.3452
     67  C5       -16.4750    5.8310   45.9360 C.3   303  SGN303      0.1158
     68  O2S      -10.4480   12.5030   52.0150 O.3   305  SGN305     -0.0534
     69  O4       -15.0880   -0.5470   44.7920 O.3   301  SGN301     -0.3401
     70  C3       -15.0160    6.4380   43.9950 C.3   303  SGN303      0.1055
     71  C4       -14.4180   -1.4140   45.6290 C.3   301  SGN301      0.1176
     72  O3S      -15.8580   -4.2090   50.7550 O.3   301  SGN301     -0.0534
     73  N        -15.5770    5.2840   41.8720 N.3   303  SGN303     -0.1775
     74  C6       -17.4280    2.2290   46.2000 C.2   302  IDS302      0.3367
     75  O6        -9.7370   14.5120   45.7140 O.3   305  SGN305     -0.2520
     76  C1       -14.8520    8.3290   47.1510 C.3   304  IDS304      0.1915
     77  O2S      -11.3850    2.6160   41.9120 O.2   302  IDS302     -0.3452
     78  C4       -15.6520    6.9750   45.3310 C.3   303  SGN303      0.1176
     79  C2       -16.1240    5.8780   43.0900 C.3   303  SGN303      0.1081
     80  O3S      -11.9940   10.7460   52.5060 O.3   305  SGN305     -0.0534
     81  O1S      -10.3790   10.5240   50.7570 O.3   305  SGN305     -0.0534
     82  C3       -12.3920    8.6450   47.8340 C.3   304  IDS304      0.1174
     83  O6       -18.0500    7.1890   46.9590 O.3   303  SGN303     -0.2520
     84  S1       -15.0290   -3.2860   50.0190 S.3   301  SGN301      0.0767
     85  C2       -14.4530    1.1740   43.2750 C.3   302  IDS302      0.1644
     86  O1       -14.4690   -4.9080   46.0170 O.3   301  SGN301     -0.3656
     87  O6S      -10.5570   -3.0650   43.3760 O.3   301  SGN301     -0.2682
     88  C2       -11.8240   12.7170   49.2820 C.3   305  SGN305      0.1080
     89  C6       -10.9760   14.0220   45.2960 C.3   305  SGN305      0.1035
     90  O1S      -13.3670    3.8030   41.3860 O.2   302  IDS302     -0.3452
     91  H        -16.4660    6.4510   47.9610 H     303  SGN303      0.0610
     92  H        -17.7030    5.2980   47.5890 H     303  SGN303      0.0610
     93  H        -11.7900    6.8060   47.5690 H     304  IDS304      0.2100
     94  H        -15.0240   -4.6800   48.3550 H     301  SGN301      0.1487
     95  H        -16.9280    0.7070   44.9430 H     302  IDS302      0.0742
     96  H        -13.7720    7.1820   48.5610 H     304  IDS304      0.0698
     97  H        -13.4940    0.6850   45.1270 H     302  IDS302      0.0939
     98  H        -10.7110   11.0240   48.5370 H     305  SGN305      0.0927
     99  H        -13.2730    9.0550   45.3330 H     304  IDS304      0.0742
    100  H        -13.9180   15.2490   49.2790 H     305  SGN305      0.2100
    101  H        -11.4760    9.9830   46.4660 H     304  IDS304      0.0656
    102  H        -13.4460   15.9580   47.6470 H     305  SGN305      0.2100
    103  H        -17.6390    2.5110   43.5070 H     302  IDS302      0.0656
    104  H        -16.0480   -2.8050   45.9650 H     301  SGN301      0.0638
    105  H        -12.9280   -4.3970   47.2780 H     301  SGN301      0.0925
    106  H        -15.5300    2.5000   42.0280 H     302  IDS302      0.0649
    107  H        -16.7440    0.0600   42.9200 H     302  IDS302      0.2100
    108  H        -13.9920    7.1560   42.4930 H     303  SGN303      0.2100
    109  H        -15.6400   -0.6710   47.7510 H     301  SGN301      0.2100
    110  H        -11.3370   15.0120   47.8520 H     305  SGN305      0.0646
    111  H        -13.5560   -1.2660   43.0620 H     301  SGN301      0.0610
    112  H        -12.6230   -2.7320   43.0250 H     301  SGN301      0.0610
    113  H        -14.5440   -3.0510   44.3660 H     301  SGN301      0.0648
    114  H        -12.8940   11.2210   50.1430 H     305  SGN305      0.1487
    115  H        -17.7840    4.5030   43.2500 H     303  SGN303      0.0927
    116  H        -16.0630    2.3310   47.4790 H     302  IDS302      0.2951
    117  H        -11.8700   11.0080   44.6070 H     304  IDS304      0.2951
    118  H        -13.8630   -2.2820   47.9970 H     301  SGN301      0.0554
    119  H        -13.7260   13.1480   48.3660 H     305  SGN305      0.0638
    120  H        -12.6370   12.9860   46.1210 H     305  SGN305      0.0648
    121  H        -15.7450    5.0760   46.1430 H     303  SGN303      0.0648
    122  H        -14.3060    5.6730   44.2310 H     303  SGN303      0.0638
    123  H        -13.7310   -0.8350   46.2100 H     301  SGN301      0.0650
    124  H        -14.6660    5.7090   41.7010 H     303  SGN303      0.1487
    125  H        -15.8470    8.2180   47.5290 H     304  IDS304      0.0939
    126  H        -16.2590    7.8370   45.1470 H     303  SGN303      0.0650
    127  H        -16.7510    6.7000   42.8150 H     303  SGN303      0.0554
    128  H        -11.8330    8.8310   48.7270 H     304  IDS304      0.0649
    129  H        -14.2580    0.2850   42.7120 H     302  IDS302      0.0698
    130  H        -15.1060   -4.4720   45.4290 H     301  SGN301      0.2125
    131  H        -10.9720   13.2760   49.6070 H     305  SGN305      0.0554
    132  H        -11.5520   14.8230   44.8810 H     305  SGN305      0.0610
    133  H        -10.8220   13.2640   44.5560 H     305  SGN305      0.0610
@<TRIPOS>BOND
     1     1    67    1
     2     1    83    1
     3     1    91    1
     4     1    92    1
     5     2    82    1
     6     2    93    1
     7     3    54    1
     8     3    84    1
     9     3    94    1
    10     4    26    1
    11     4    74    1
    12     4    19    1
    13     4    95    1
    14     5    32    1
    15     5    44    1
    16     6    76    1
    17     6    82    1
    18     6    14    1
    19     6    96    1
    20     7    69    1
    21     7    85    1
    22     7    19    1
    23     7    97    1
    24     8    17    1
    25     8    88    1
    26     8    12    1
    27     8    98    1
    28     9    14    1
    29     9    15    2
    30     9    20    2
    31     9    11    1
    32    10    23    1
    33    10    46    1
    34    10    30    1
    35    10    99    1
    36    12    57    1
    37    13    85    1
    38    13    43    1
    39    16    60    2
    40    17    23    1
    41    18    84    1
    42    21    45    2
    43    22    56    1
    44    22   100    1
    45    23    82    1
    46    23   101    1
    47    24    41    1
    48    24   102    1
    49    25    84    1
    50    26    33    1
    51    26    53    1
    52    26   103    1
    53    27    58    2
    54    28    78    1
    55    28    76    1
    56    29    58    2
    57    30    76    1
    58    31    54    1
    59    31    71    1
    60    31    39    1
    61    31   104    1
    62    32    54    1
    63    32    86    1
    64    32   105    1
    65    33    85    1
    66    33    34    1
    67    33   106    1
    68    34   107    1
    69    35    61    1
    70    36    70    1
    71    36   108    1
    72    37    61    1
    73    38    74    2
    74    39   109    1
    75    40    45    2
    76    41    56    1
    77    41    57    1
    78    41   110    1
    79    42    44    1
    80    42    50    1
    81    42   111    1
    82    42   112    1
    83    43    90    2
    84    43    77    2
    85    43    63    1
    86    44    71    1
    87    44   113    1
    88    45    83    1
    89    45    48    1
    90    46    59    2
    91    46    52    1
    92    47    88    1
    93    47    62    1
    94    47   114    1
    95    49    53    1
    96    49    79    1
    97    49    64    1
    98    49   115    1
    99    50    58    1
   100    51    74    1
   101    51   116    1
   102    52   117    1
   103    54   118    1
   104    55    61    1
   105    56    88    1
   106    56   119    1
   107    57    89    1
   108    57   120    1
   109    58    87    1
   110    60    75    1
   111    60    66    2
   112    60    65    1
   113    61    73    1
   114    62    81    1
   115    62    68    1
   116    62    80    1
   117    64    67    1
   118    67    78    1
   119    67   121    1
   120    69    71    1
   121    70    79    1
   122    70    78    1
   123    70   122    1
   124    71   123    1
   125    72    84    1
   126    73    79    1
   127    73   124    1
   128    75    89    1
   129    76   125    1
   130    78   126    1
   131    79   127    1
   132    82   128    1
   133    85   129    1
   134    86   130    1
   135    88   131    1
   136    89   132    1
   137    89   133    1
