@<TRIPOS>MOLECULE
1AXM_LIGAND_2.pdb
 147 151 0 0 0
SMALL
GASTEIGER

@<TRIPOS>ATOM
      1  C5        21.0570   21.0100  109.2090 C.3   405  SGN405      0.1155
      2  C5        30.3200   22.3370  109.1890 C.3   403  SGN403      0.1159
      3  C4        24.4260   22.9290  110.1150 C.3   404  IDS404      0.1267
      4  O4        27.9780   22.7970  109.4720 O.3   403  SGN403     -0.3401
      5  O6S       30.6320   18.8660  112.0620 O.2   403  SGN403     -0.1181
      6  O61       30.9020   25.2730  110.1320 O.2   402  IDS402     -0.2480
      7  C4        34.4780   28.6400  108.6240 C.3   401  SGN401      0.1176
      8  O6        32.6850   30.7840  108.1760 O.3   401  SGN401     -0.2131
      9  C1        33.0350   27.3520  107.2040 C.3   402  IDS402      0.1916
     10  C2        33.0790   26.4780  105.9520 C.3   402  IDS402      0.1684
     11  C6        24.2270   21.4850  108.0740 C.2   404  IDS404      0.3367
     12  O3        35.1330   27.1130  110.3260 O.3   401  SGN401     -0.3874
     13  O1S       30.9210   21.1500  104.1260 O.3   403  SGN403     -0.2626
     14  N         36.9970   29.0440  111.5360 N.3   401  SGN401     -0.1845
     15  O4        23.5890   21.9860  110.7240 O.3   404  IDS404     -0.3406
     16  C2        35.9160   29.3950  110.5490 C.3   401  SGN401      0.1076
     17  S2        18.3180   22.8920  107.9100 S.O2  405  SGN405      0.2076
     18  O4        31.5150   24.0790  107.1430 O.3   402  IDS402     -0.3406
     19  C3        33.4920   25.0210  106.2230 C.3   402  IDS402      0.1176
     20  O6S       31.1370   32.5250  107.6380 O.2   401  SGN401     -0.1181
     21  S1        30.0760   22.2600  103.7640 S.3   403  SGN403     -0.0198
     22  C3        25.3720   23.5580  111.1740 C.3   404  IDS404      0.1176
     23  O3        20.4140   19.5620  112.5560 O.3   405  SGN405     -0.3874
     24  S2        30.5710   18.7150  110.6510 S.O2  403  SGN403      0.2076
     25  C4        32.8260   24.4390  107.4640 C.3   402  IDS402      0.1267
     26  O4S       29.2250   18.3790  110.2090 O.2   403  SGN403     -0.1181
     27  C1        31.2670   22.7070  107.0120 C.3   403  SGN403      0.1795
     28  O62       32.7170   24.3640  110.7520 O.3   402  IDS402     -0.4788
     29  O3        34.8800   24.9960  106.4250 O.3   402  IDS402     -0.3863
     30  O1S       31.3900   26.5870  103.0120 O.2   402  IDS402     -0.1181
     31  S1        36.8130   29.3730  113.1820 S.3   401  SGN401     -0.0198
     32  O4S       30.7350   30.2670  106.8960 O.2   401  SGN401     -0.1181
     33  O2S       29.9420   27.6350  104.5710 O.2   402  IDS402     -0.1181
     34  C2        26.6230   22.7170  111.4730 C.3   404  IDS404      0.1684
     35  O2        26.3150   21.8050  112.5350 O.3   404  IDS404     -0.2047
     36  O1S       22.9050   23.5630  114.1870 O.3   405  SGN405     -0.2626
     37  N         22.5600   21.4180  113.0910 N.3   405  SGN405     -0.1845
     38  S1        22.3050   22.2760  114.4280 S.3   405  SGN405     -0.0198
     39  O61       23.7370   20.4240  108.4320 O.2   404  IDS404     -0.2480
     40  N         29.9130   23.1750  105.0830 N.3   403  SGN403     -0.1845
     41  O4S       18.5570   23.4080  106.6090 O.2   405  SGN405     -0.1181
     42  C1        36.3240   30.6040  109.6910 C.3   401  SGN401      0.1762
     43  C4        28.8970   22.2160  108.5930 C.3   403  SGN403      0.1176
     44  O4        34.3420   27.6370  107.6470 O.3   401  SGN401     -0.3401
     45  O62       23.9090   21.9430  106.9900 O.3   404  IDS404     -0.4788
     46  C3        28.8460   23.0100  107.2980 C.3   403  SGN403      0.1055
     47  O3S       22.9530   21.6130  115.5110 O.3   405  SGN405     -0.2626
     48  C6        32.1040   25.0090  109.9160 C.2   402  IDS402      0.3367
     49  C5        32.8130   25.4650  108.6210 C.3   402  IDS402      0.1863
     50  O5S       16.9100   22.6850  108.1480 O.2   405  SGN405     -0.1181
     51  S         31.2790   27.3640  104.2170 S.O2  402  IDS402      0.2080
     52  O3S       28.5360   20.9690  112.8040 O.2   404  IDS404     -0.1181
     53  C6        33.6750   30.6070  107.1990 C.3   401  SGN401      0.1076
     54  O5        31.3160   22.0030  108.2450 O.3   403  SGN403     -0.3413
     55  O5        26.1440   21.3220  109.4840 O.3   404  IDS404     -0.3314
     56  O3        25.8150   24.8050  110.6940 O.3   404  IDS404     -0.3863
     57  O3S       32.1100   28.5430  104.1900 O.3   402  IDS402     -0.2311
     58  O2S       20.8720   22.3480  114.5790 O.3   405  SGN405     -0.2626
     59  O3S       30.7100   23.0790  102.7880 O.3   403  SGN403     -0.2626
     60  O6        18.9880   21.4410  107.9560 O.3   405  SGN405     -0.2131
     61  O2S       26.7630   20.0120  114.0670 O.2   404  IDS404     -0.1181
     62  O4        19.6330   19.1730  109.9070 O.3   405  SGN405     -0.3865
     63  O1        37.4720   30.2940  108.8830 O.3   401  SGN401     -0.3656
     64  C4        20.1880   20.4210  110.3140 C.3   405  SGN405      0.1111
     65  O3        27.5910   22.8180  106.7180 O.3   403  SGN403     -0.3874
     66  O2S       36.4900   28.1260  113.8220 O.3   401  SGN401     -0.2626
     67  C2        21.6090   21.5620  111.9930 C.3   405  SGN405      0.1078
     68  C2        29.9220   22.5050  106.3670 C.3   403  SGN403      0.1078
     69  O2S       28.7290   21.8470  103.4190 O.3   403  SGN403     -0.2626
     70  C6        20.3650   21.1100  107.8230 C.3   405  SGN405      0.1076
     71  C3        35.5940   28.2300  109.5890 C.3   401  SGN401      0.1055
     72  C5        25.1770   22.2220  108.9910 C.3   404  IDS404      0.1863
     73  O5        35.2710   30.9860  108.8580 O.3   401  SGN401     -0.3416
     74  O1S       35.7400   30.3400  113.3170 O.3   401  SGN401     -0.2626
     75  O2        31.8070   26.4530  105.3660 O.3   402  IDS402     -0.2047
     76  O6S       18.9650   23.6990  108.9400 O.3   405  SGN405     -0.2311
     77  O1S       27.5660   22.2140  114.4910 O.3   404  IDS404     -0.2311
     78  O5        32.2700   26.7080  108.1910 O.3   402  IDS402     -0.3314
     79  C3        21.1290   20.1960  111.5120 C.3   405  SGN405      0.1051
     80  C1        22.2530   22.3730  110.8580 C.3   405  SGN405      0.1795
     81  O3S       38.0860   29.9080  113.6160 O.3   401  SGN401     -0.2626
     82  O5        21.5040   22.3310  109.6220 O.3   405  SGN405     -0.3414
     83  O5S       30.5650   30.7770  109.2080 O.3   401  SGN401     -0.2311
     84  O6        30.8840   20.0990  109.9400 O.3   403  SGN403     -0.2131
     85  S2        31.1900   31.1080  107.9560 S.O2  401  SGN401      0.2076
     86  C1        27.1850   21.9380  110.2510 C.3   404  IDS404      0.1916
     87  C6        30.6000   21.4150  110.3990 C.3   403  SGN403      0.1076
     88  O5S       31.5920   17.8270  110.1680 O.3   403  SGN403     -0.2311
     89  C5        34.8560   29.9840  107.9300 C.3   401  SGN401      0.1159
     90  S         27.3470   21.2030  113.5370 S.O2  404  IDS404      0.2080
     91 H          21.8749   20.3333  109.0750 H     405  SGN405      0.0648
     92 H          30.3575   23.3618  109.4943 H     403  SGN403      0.0648
     93 H          23.8683   23.7394  109.6942 H     404  IDS404      0.0656
     94 H          33.5597   28.7646  109.1589 H     401  SGN401      0.0650
     95 H          32.5691   28.2890  106.9809 H     402  IDS402      0.0939
     96 H          33.8189   26.9127  105.3129 H     402  IDS402      0.0699
     97 H          34.9324   26.3846  109.7176 H     401  SGN401      0.2100
     98 H          30.4717   20.6050  104.7909 H     403  SGN403      0.2439
     99 H          37.8368   29.5377  111.2338 H     401  SGN401      0.1485
    100 H          35.0497   29.6205  111.1351 H     401  SGN401      0.0554
    101 H          33.1870   24.4330  105.3827 H     402  IDS402      0.0649
    102 H          24.8047   23.6305  112.0783 H     404  IDS404      0.0649
    103 H          20.1063   18.6926  112.2556 H     405  SGN405      0.2100
    104 H          33.3805   23.5824  107.7859 H     402  IDS402      0.0656
    105 H          32.0486   22.3059  106.4012 H     403  SGN403      0.0927
    106 H          33.6193   24.1537  110.6123 H     402  IDS402      0.2951
    107 H          35.1046   25.5417  107.1949 H     402  IDS402      0.2100
    108 H          27.3970   23.4015  111.7511 H     404  IDS404      0.0699
    109 H          22.4515   23.9979  113.4481 H     405  SGN405      0.2439
    110 H          23.4786   21.6798  112.7331 H     405  SGN405      0.1485
    111 H          29.0251   23.6706  105.0032 H     403  SGN403      0.1485
    112 H          36.5681   31.4076  110.3539 H     401  SGN401      0.0925
    113 H          28.6649   21.1845  108.4288 H     403  SGN403      0.0650
    114 H          24.2745   22.7552  106.6991 H     404  IDS404      0.2951
    115 H          29.0061   24.0510  107.4866 H     403  SGN403      0.0638
    116 H          23.9100   21.5959  115.3536 H     405  SGN405      0.2439
    117 H          33.8447   25.5704  108.8842 H     402  IDS402      0.0742
    118 H          33.9528   31.5482  106.7724 H     401  SGN401      0.0611
    119 H          33.3344   29.9900  106.3939 H     401  SGN401      0.0611
    120 H          26.3208   24.6756  109.8765 H     404  IDS404      0.2100
    121 H          31.8084   29.1350  103.4833 H     402  IDS402      0.2469
    122 H          20.4891   22.8075  113.8154 H     405  SGN405      0.2439
    123 H          31.6017   23.3115  103.0909 H     403  SGN403      0.2439
    124 H          19.0400   19.3136  109.1523 H     405  SGN405      0.2100
    125 H          37.2558   29.5657  108.2800 H     401  SGN401      0.2125
    126 H          19.3745   21.0737  110.5530 H     405  SGN405      0.0646
    127 H          27.4536   21.8726  106.5503 H     403  SGN403      0.2100
    128 H          35.6316   27.8098  113.4993 H     401  SGN401      0.2439
    129 H          20.7466   22.0937  112.3372 H     405  SGN405      0.0554
    130 H          29.7275   21.4678  106.1904 H     403  SGN403      0.0554
    131 H          28.3678   21.2952  104.1303 H     403  SGN403      0.2439
    132 H          20.4504   20.1684  107.3219 H     405  SGN405      0.0611
    133 H          20.8455   21.8829  107.2604 H     405  SGN405      0.0611
    134 H          36.4847   27.9843  109.0494 H     401  SGN401      0.0638
    135 H          25.6792   22.9870  108.4365 H     404  IDS404      0.0742
    136 H          34.9074   29.9432  113.0166 H     401  SGN401      0.2439
    137 H          19.9054   23.8029  108.7261 H     405  SGN405      0.2469
    138 H          27.9623   22.9864  114.0584 H     404  IDS404      0.2469
    139 H          21.9581   19.5822  111.2277 H     405  SGN405      0.0638
    140 H          22.2295   23.4097  111.1216 H     405  SGN405      0.0927
    141 H          38.2578   30.7456  113.1579 H     401  SGN401      0.2439
    142 H          30.8980   31.3675  109.9017 H     401  SGN401      0.2469
    143 H          27.7993   21.1376  110.6073 H     404  IDS404      0.0939
    144 H          29.7405   21.3923  111.0359 H     403  SGN403      0.0611
    145 H          31.4403   21.7902  110.9449 H     403  SGN403      0.0611
    146 H          32.4556   18.1146  110.5031 H     403  SGN403      0.2469
    147 H          35.6465   29.7132  107.2617 H     401  SGN401      0.0648
@<TRIPOS>BOND
     1     1    64    1
     2     1    70    1
     3     1    82    1
     4     2    43    1
     5     2    87    1
     6     2    54    1
     7     3    22    1
     8     3    72    1
     9     3    15    1
    10     4    43    1
    11     4    86    1
    12     5    24    2
    13     6    48    2
    14     7    71    1
    15     7    89    1
    16     7    44    1
    17     8    53    1
    18     8    85    1
    19     9    44    1
    20     9    10    1
    21     9    78    1
    22    10    19    1
    23    10    75    1
    24    11    72    1
    25    11    39    2
    26    11    45    1
    27    12    71    1
    28    13    21    1
    29    14    16    1
    30    14    31    1
    31    15    80    1
    32    16    42    1
    33    16    71    1
    34    17    60    1
    35    17    41    2
    36    17    50    2
    37    17    76    1
    38    18    25    1
    39    18    27    1
    40    19    25    1
    41    19    29    1
    42    20    85    2
    43    21    40    1
    44    21    69    1
    45    21    59    1
    46    22    34    1
    47    22    56    1
    48    23    79    1
    49    24    84    1
    50    24    26    2
    51    24    88    1
    52    25    49    1
    53    27    68    1
    54    27    54    1
    55    28    48    1
    56    30    51    2
    57    31    74    1
    58    31    66    1
    59    31    81    1
    60    32    85    2
    61    33    51    2
    62    34    86    1
    63    34    35    1
    64    35    90    1
    65    36    38    1
    66    37    67    1
    67    37    38    1
    68    38    58    1
    69    38    47    1
    70    40    68    1
    71    42    63    1
    72    42    73    1
    73    43    46    1
    74    46    68    1
    75    46    65    1
    76    48    49    1
    77    49    78    1
    78    51    75    1
    79    51    57    1
    80    52    90    2
    81    53    89    1
    82    55    86    1
    83    55    72    1
    84    60    70    1
    85    61    90    2
    86    62    64    1
    87    64    79    1
    88    67    80    1
    89    67    79    1
    90    73    89    1
    91    77    90    1
    92    80    82    1
    93    83    85    1
    94    84    87    1
    95     1    91    1
    96     2    92    1
    97     3    93    1
    98     7    94    1
    99     9    95    1
   100    10    96    1
   101    12    97    1
   102    13    98    1
   103    14    99    1
   104    16   100    1
   105    19   101    1
   106    22   102    1
   107    23   103    1
   108    25   104    1
   109    27   105    1
   110    28   106    1
   111    29   107    1
   112    34   108    1
   113    36   109    1
   114    37   110    1
   115    40   111    1
   116    42   112    1
   117    43   113    1
   118    45   114    1
   119    46   115    1
   120    47   116    1
   121    49   117    1
   122    53   118    1
   123    53   119    1
   124    56   120    1
   125    57   121    1
   126    58   122    1
   127    59   123    1
   128    62   124    1
   129    63   125    1
   130    64   126    1
   131    65   127    1
   132    66   128    1
   133    67   129    1
   134    68   130    1
   135    69   131    1
   136    70   132    1
   137    70   133    1
   138    71   134    1
   139    72   135    1
   140    74   136    1
   141    76   137    1
   142    77   138    1
   143    79   139    1
   144    80   140    1
   145    81   141    1
   146    83   142    1
   147    86   143    1
   148    87   144    1
   149    87   145    1
   150    88   146    1
   151    89   147    1
