@<TRIPOS>MOLECULE
1AXM_LIGAND_3.pdb
 147 151 0 0 0
SMALL
GASTEIGER

@<TRIPOS>ATOM
      1  C6       -17.1770    6.1530   47.2190 C.3   303  SGN303      0.1076
      2  O3       -11.8160    7.6300   47.0570 O.3   304  IDS304     -0.3863
      3  N        -15.2560   -3.6920   48.4520 N.3   301  SGN301     -0.1845
      4  C5       -16.5530    1.6910   45.1300 C.3   302  IDS302      0.1863
      5  O5       -12.9230   -3.2260   45.6350 O.3   301  SGN301     -0.3416
      6  C2       -13.8170    8.2120   48.2760 C.3   304  IDS304      0.1684
      7  C1       -14.4920    0.7200   44.7420 C.3   302  IDS302      0.1916
      8  C1       -11.4430   11.7220   48.1880 C.3   305  SGN305      0.1795
      9  S        -15.1180    8.6440   50.5420 S.O2  304  IDS304      0.2080
     10  C5       -13.5270    9.8680   45.9810 C.3   304  IDS304      0.1863
     11  O3S      -16.2520    7.9010   50.1170 O.3   304  IDS304     -0.2311
     12  O5       -10.8620   12.4230   47.0850 O.3   305  SGN305     -0.3414
     13  O2       -13.4350    2.1390   43.0860 O.3   302  IDS302     -0.2047
     14  O2       -14.2150    9.0370   49.3390 O.3   304  IDS304     -0.2047
     15  O1S      -14.2830    7.8920   51.4330 O.2   304  IDS304     -0.1181
     16  O5S       -7.3150   14.8500   45.4760 O.2   305  SGN305     -0.1181
     17  O4       -12.6010   11.0030   47.8190 O.3   304  IDS304     -0.3406
     18  O2S      -15.5300   -1.9290   50.1400 O.3   301  SGN301     -0.2626
     19  O5       -15.2230    1.6230   45.5380 O.3   302  IDS302     -0.3314
     20  O2S      -15.4990    9.8990   51.0630 O.2   304  IDS304     -0.1181
     21  O4S      -18.9480    7.6700   49.1230 O.2   303  SGN303     -0.1181
     22  O3       -13.2650   14.6450   49.6660 O.3   305  SGN305     -0.3874
     23  C4       -12.4080    9.9090   46.9870 C.3   304  IDS304      0.1267
     24  O4       -13.1670   15.3150   46.9760 O.3   305  SGN305     -0.3865
     25  O1S      -13.5890   -3.4190   50.2930 O.3   301  SGN301     -0.2626
     26  C4       -16.6270    2.4570   43.8500 C.3   302  IDS302      0.1267
     27  O4S       -9.6470   -0.8190   43.4690 O.2   301  SGN301     -0.1181
     28  O4       -14.6250    7.3000   46.2210 O.3   303  SGN303     -0.3401
     29  O5S      -10.0920   -1.9880   45.5230 O.2   301  SGN301     -0.1181
     30  O5       -14.7640    9.6160   46.5660 O.3   304  IDS304     -0.3314
     31  C3       -15.3850   -2.1720   46.5170 C.3   301  SGN301      0.1055
     32  C1       -13.6320   -3.9220   46.6280 C.3   301  SGN301      0.1762
     33  C3       -15.7800    1.7570   42.7560 C.3   302  IDS302      0.1176
     34  O3       -16.5460    0.7020   42.2210 O.3   302  IDS302     -0.3863
     35  O2S      -16.4650    6.8640   40.2830 O.3   303  SGN303     -0.2626
     36  O3       -14.3820    7.4910   43.3150 O.3   303  SGN303     -0.3874
     37  O1S      -17.7830    4.9700   40.8270 O.3   303  SGN303     -0.2626
     38  O62      -18.6130    2.4240   45.9850 O.2   302  IDS302     -0.2480
     39  O3       -16.1990   -1.2700   47.2320 O.3   301  SGN301     -0.3874
     40  O5S      -19.9120    8.6490   47.1620 O.2   303  SGN303     -0.1181
     41  C4       -12.1880   14.4490   47.5290 C.3   305  SGN305      0.1111
     42  C6       -12.9550   -1.9290   43.6490 C.3   301  SGN301      0.1076
     43  S        -12.7920    2.5480   41.7230 S.O2  302  IDS302      0.2080
     44  C5       -13.7620   -2.4640   44.8000 C.3   301  SGN301      0.1159
     45  S2       -19.3520    7.4600   47.7600 S.O2  303  SGN303      0.2076
     46  C6       -13.6250   11.0880   45.1850 C.2   304  IDS304      0.3367
     47  N        -12.3280   12.0030   50.4720 N.3   305  SGN305     -0.1845
     48  O6S      -20.1910    6.2830   47.5920 O.3   303  SGN303     -0.2311
     49  C1       -16.9500    4.8330   43.8340 C.3   303  SGN303      0.1795
     50  O6       -11.8810   -1.2520   44.1590 O.3   301  SGN301     -0.2131
     51  O61      -16.9720    2.4770   47.3040 O.3   302  IDS302     -0.4788
     52  O62      -12.6780   11.4820   44.5750 O.3   304  IDS304     -0.4788
     53  O4       -16.1110    3.7330   44.0960 O.3   302  IDS302     -0.3406
     54  C2       -14.4890   -2.9640   47.4600 C.3   301  SGN301      0.1076
     55  O3S      -15.7920    4.7050   39.5480 O.3   303  SGN303     -0.2626
     56  C3       -12.8650   13.6940   48.6920 C.3   305  SGN305      0.1051
     57  C5       -11.7290   13.4190   46.4850 C.3   305  SGN305      0.1155
     58  S2       -10.4620   -1.8200   44.1320 S.O2  301  SGN301      0.2076
     59  O61      -14.6650   11.7130   45.1340 O.2   304  IDS304     -0.2480
     60  S2        -8.5810   15.0290   44.7720 S.O2  305  SGN305      0.2076
     61  S1       -16.4560    5.4570   40.5360 S.3   303  SGN303     -0.0198
     62  S1       -11.2210   11.4060   51.5070 S.3   305  SGN305     -0.0198
     63  O3S      -13.1810    1.5450   40.8080 O.3   302  IDS302     -0.2311
     64  O5       -17.4750    5.4000   45.0230 O.3   303  SGN303     -0.3413
     65  O6S       -8.6220   14.2210   43.5650 O.3   305  SGN305     -0.2311
     66  O4S       -8.9180   16.4190   44.5530 O.2   305  SGN305     -0.1181
     67  C5       -16.4750    5.8310   45.9360 C.3   303  SGN303      0.1159
     68  O2S      -10.4480   12.5030   52.0150 O.3   305  SGN305     -0.2626
     69  O4       -15.0880   -0.5470   44.7920 O.3   301  SGN301     -0.3401
     70  C3       -15.0160    6.4380   43.9950 C.3   303  SGN303      0.1055
     71  C4       -14.4180   -1.4140   45.6290 C.3   301  SGN301      0.1176
     72  O3S      -15.8580   -4.2090   50.7550 O.3   301  SGN301     -0.2626
     73  N        -15.5770    5.2840   41.8720 N.3   303  SGN303     -0.1845
     74  C6       -17.4280    2.2290   46.2000 C.2   302  IDS302      0.3367
     75  O6        -9.7370   14.5120   45.7140 O.3   305  SGN305     -0.2131
     76  C1       -14.8520    8.3290   47.1510 C.3   304  IDS304      0.1916
     77  O2S      -11.3850    2.6160   41.9120 O.2   302  IDS302     -0.1181
     78  C4       -15.6520    6.9750   45.3310 C.3   303  SGN303      0.1176
     79  C2       -16.1240    5.8780   43.0900 C.3   303  SGN303      0.1078
     80  O3S      -11.9940   10.7460   52.5060 O.3   305  SGN305     -0.2626
     81  O1S      -10.3790   10.5240   50.7570 O.3   305  SGN305     -0.2626
     82  C3       -12.3920    8.6450   47.8340 C.3   304  IDS304      0.1176
     83  O6       -18.0500    7.1890   46.9590 O.3   303  SGN303     -0.2131
     84  S1       -15.0290   -3.2860   50.0190 S.3   301  SGN301     -0.0198
     85  C2       -14.4530    1.1740   43.2750 C.3   302  IDS302      0.1684
     86  O1       -14.4690   -4.9080   46.0170 O.3   301  SGN301     -0.3656
     87  O6S      -10.5570   -3.0650   43.3760 O.3   301  SGN301     -0.2311
     88  C2       -11.8240   12.7170   49.2820 C.3   305  SGN305      0.1078
     89  C6       -10.9760   14.0220   45.2960 C.3   305  SGN305      0.1076
     90  O1S      -13.3670    3.8030   41.3860 O.2   302  IDS302     -0.1181
     91 H         -16.4659    6.4507   47.9610 H     303  SGN303      0.0611
     92 H         -17.7029    5.2976   47.5886 H     303  SGN303      0.0611
     93 H         -11.7900    6.8064   47.5687 H     304  IDS304      0.2100
     94 H         -15.0236   -4.6804   48.3545 H     301  SGN301      0.1485
     95 H         -16.9285    0.7067   44.9427 H     302  IDS302      0.0742
     96 H         -13.7717    7.1816   48.5609 H     304  IDS304      0.0699
     97 H         -13.4941    0.6848   45.1265 H     302  IDS302      0.0939
     98 H         -10.7110   11.0239   48.5369 H     305  SGN305      0.0927
     99 H         -13.2733    9.0552   45.3330 H     304  IDS304      0.0742
    100 H         -15.9638    7.0447   49.7640 H     304  IDS304      0.2469
    101 H         -14.9581   -1.3273   49.6382 H     301  SGN301      0.2439
    102 H         -13.9176   15.2493   49.2790 H     305  SGN305      0.2100
    103 H         -11.4765    9.9835   46.4659 H     304  IDS304      0.0656
    104 H         -13.4457   15.9580   47.6466 H     305  SGN305      0.2100
    105 H         -13.0981   -2.7697   49.7653 H     301  SGN301      0.2439
    106 H         -17.6389    2.5112   43.5066 H     302  IDS302      0.0656
    107 H         -16.0477   -2.8051   45.9648 H     301  SGN301      0.0638
    108 H         -12.9275   -4.3973   47.2781 H     301  SGN301      0.0925
    109 H         -15.5296    2.4996   42.0275 H     302  IDS302      0.0649
    110 H         -16.7445    0.0597   42.9202 H     302  IDS302      0.2100
    111 H         -16.9825    7.0453   39.4829 H     303  SGN303      0.2439
    112 H         -13.9915    7.1561   42.4926 H     303  SGN303      0.2100
    113 H         -18.3408    5.0605   40.0386 H     303  SGN303      0.2439
    114 H         -15.6396   -0.6715   47.7513 H     301  SGN301      0.2100
    115 H         -11.3374   15.0121   47.8522 H     305  SGN305      0.0646
    116 H         -13.5559   -1.2660   43.0623 H     301  SGN301      0.0611
    117 H         -12.6235   -2.7323   43.0247 H     301  SGN301      0.0611
    118 H         -14.5444   -3.0507   44.3657 H     301  SGN301      0.0648
    119 H         -12.8940   11.2207   50.1434 H     305  SGN305      0.1485
    120 H         -21.0216    6.4060   48.0777 H     303  SGN303      0.2469
    121 H         -17.7838    4.5030   43.2503 H     303  SGN303      0.0927
    122 H         -16.0632    2.3307   47.4792 H     302  IDS302      0.2951
    123 H         -11.8702   11.0083   44.6066 H     304  IDS304      0.2951
    124 H         -13.8632   -2.2820   47.9969 H     301  SGN301      0.0554
    125 H         -16.2780    4.7701   38.7111 H     303  SGN303      0.2439
    126 H         -13.7255   13.1480   48.3660 H     305  SGN305      0.0638
    127 H         -12.6373   12.9856   46.1215 H     305  SGN305      0.0648
    128 H         -14.1469    1.5452   40.7194 H     302  IDS302      0.2469
    129 H          -8.3872   13.3050   43.7810 H     305  SGN305      0.2469
    130 H         -15.7453    5.0763   46.1428 H     303  SGN303      0.0648
    131 H          -9.9469   12.9085   51.2902 H     305  SGN305      0.2439
    132 H         -14.3062    5.6730   44.2314 H     303  SGN303      0.0638
    133 H         -13.7308   -0.8350   46.2098 H     301  SGN301      0.0650
    134 H         -16.7886   -4.0627   50.5240 H     301  SGN301      0.2439
    135 H         -14.6657    5.7092   41.7013 H     303  SGN303      0.1485
    136 H         -15.8470    8.2181   47.5285 H     304  IDS304      0.0939
    137 H         -16.2593    7.8365   45.1468 H     303  SGN303      0.0650
    138 H         -16.7509    6.7003   42.8148 H     303  SGN303      0.0554
    139 H         -12.4912   10.0179   52.1015 H     305  SGN305      0.2439
    140 H          -9.8828   11.0337   50.0975 H     305  SGN305      0.2439
    141 H         -11.8331    8.8309   48.7273 H     304  IDS304      0.0649
    142 H         -14.2577    0.2852   42.7122 H     302  IDS302      0.0699
    143 H         -15.1056   -4.4723   45.4289 H     301  SGN301      0.2125
    144 H          -9.6811   -3.4783   43.3223 H     301  SGN301      0.2469
    145 H         -10.9719   13.2764   49.6073 H     305  SGN305      0.0554
    146 H         -11.5519   14.8226   44.8810 H     305  SGN305      0.0611
    147 H         -10.8225   13.2640   44.5565 H     305  SGN305      0.0611
@<TRIPOS>BOND
     1     1    67    1
     2     1    83    1
     3     2    82    1
     4     3    54    1
     5     3    84    1
     6     4    26    1
     7     4    74    1
     8     4    19    1
     9     5    32    1
    10     5    44    1
    11     6    76    1
    12     6    82    1
    13     6    14    1
    14     7    69    1
    15     7    85    1
    16     7    19    1
    17     8    17    1
    18     8    88    1
    19     8    12    1
    20     9    14    1
    21     9    15    2
    22     9    20    2
    23     9    11    1
    24    10    23    1
    25    10    46    1
    26    10    30    1
    27    12    57    1
    28    13    85    1
    29    13    43    1
    30    16    60    2
    31    17    23    1
    32    18    84    1
    33    21    45    2
    34    22    56    1
    35    23    82    1
    36    24    41    1
    37    25    84    1
    38    26    33    1
    39    26    53    1
    40    27    58    2
    41    28    78    1
    42    28    76    1
    43    29    58    2
    44    30    76    1
    45    31    54    1
    46    31    71    1
    47    31    39    1
    48    32    54    1
    49    32    86    1
    50    33    85    1
    51    33    34    1
    52    35    61    1
    53    36    70    1
    54    37    61    1
    55    38    74    2
    56    40    45    2
    57    41    56    1
    58    41    57    1
    59    42    44    1
    60    42    50    1
    61    43    90    2
    62    43    77    2
    63    43    63    1
    64    44    71    1
    65    45    83    1
    66    45    48    1
    67    46    59    2
    68    46    52    1
    69    47    88    1
    70    47    62    1
    71    49    53    1
    72    49    79    1
    73    49    64    1
    74    50    58    1
    75    51    74    1
    76    55    61    1
    77    56    88    1
    78    57    89    1
    79    58    87    1
    80    60    75    1
    81    60    66    2
    82    60    65    1
    83    61    73    1
    84    62    81    1
    85    62    68    1
    86    62    80    1
    87    64    67    1
    88    67    78    1
    89    69    71    1
    90    70    79    1
    91    70    78    1
    92    72    84    1
    93    73    79    1
    94    75    89    1
    95     1    91    1
    96     1    92    1
    97     2    93    1
    98     3    94    1
    99     4    95    1
   100     6    96    1
   101     7    97    1
   102     8    98    1
   103    10    99    1
   104    11   100    1
   105    18   101    1
   106    22   102    1
   107    23   103    1
   108    24   104    1
   109    25   105    1
   110    26   106    1
   111    31   107    1
   112    32   108    1
   113    33   109    1
   114    34   110    1
   115    35   111    1
   116    36   112    1
   117    37   113    1
   118    39   114    1
   119    41   115    1
   120    42   116    1
   121    42   117    1
   122    44   118    1
   123    47   119    1
   124    48   120    1
   125    49   121    1
   126    51   122    1
   127    52   123    1
   128    54   124    1
   129    55   125    1
   130    56   126    1
   131    57   127    1
   132    63   128    1
   133    65   129    1
   134    67   130    1
   135    68   131    1
   136    70   132    1
   137    71   133    1
   138    72   134    1
   139    73   135    1
   140    76   136    1
   141    78   137    1
   142    79   138    1
   143    80   139    1
   144    81   140    1
   145    82   141    1
   146    85   142    1
   147    86   143    1
   148    87   144    1
   149    88   145    1
   150    89   146    1
   151    89   147    1
