@<TRIPOS>MOLECULE
1AXM_LIGAND_1_uncharged.pdb
 128 132 0 0 0
SMALL
GASTEIGER

@<TRIPOS>ATOM
      1  C2       -16.8450   51.5400  175.9290 C.3   504  IDS504      0.1644
      2  C1       -23.7280   56.1230  175.9270 C.3   502  IDS502      0.1885
      3  C1       -10.5480   48.7560  172.5560 C.3   506  IDS506      0.1915
      4  O6S      -14.5050   45.3250  169.2950 O.2   505  SGN505     -0.3452
      5  O4       -21.0600   56.0150  173.6700 O.3   502  IDS502     -0.3406
      6  C2       -13.6290   47.7260  175.4840 C.3   505  SGN505      0.1081
      7  O3S      -14.5880   48.1350  179.1860 O.3   505  SGN505     -0.0534
      8  O3       -18.7230   50.0790  175.3350 O.3   504  IDS504     -0.3863
      9  S1       -14.4230   47.3220  178.0340 S.3   505  SGN505      0.0767
     10  C6       -20.4530   57.8480  175.9140 C.2   502  IDS502      0.3367
     11  O3       -24.1170   57.9620  173.5830 O.3   502  IDS502     -0.3863
     12  C2       -19.4100   55.3330  172.0350 C.3   503  SGN503      0.1081
     13  O1S       -8.6160   49.1850  168.5050 O.2   506  IDS506     -0.3452
     14  O4S      -12.8130   44.0320  170.4360 O.2   505  SGN505     -0.3452
     15  O1       -24.5750   57.1990  176.2320 O.3   502  IDS502     -0.3648
     16  O3        -8.8350   51.3240  171.7320 O.3   506  IDS506     -0.3863
     17  O62      -16.9140   49.3580  171.1270 O.2   504  IDS504     -0.2480
     18  O5       -18.8110   56.3600  174.1240 O.3   503  SGN503     -0.3413
     19  C2       -23.9490   55.7520  174.4640 C.3   502  IDS502      0.1642
     20  O5       -16.1550   51.7610  173.6030 O.3   504  IDS504     -0.3314
     21  C2        -9.9890   49.2610  171.2180 C.3   506  IDS506      0.1644
     22  O4        -7.0660   48.2100  171.7740 O.3   506  IDS506     -0.3860
     23  S2       -15.4250   56.8490  175.8730 S.3   503  SGN503     -0.0008
     24  O2       -23.3040   54.5300  174.2230 O.3   502  IDS502     -0.2435
     25  O3S      -24.5970   52.6740  173.4790 O.2   502  IDS502     -0.3452
     26  O3S      -16.0210   53.0620  178.1920 O.2   504  IDS504     -0.3452
     27  C1       -19.8060   56.3330  173.1310 C.3   503  SGN503      0.1795
     28  C1       -14.9520   47.9230  174.7700 C.3   505  SGN505      0.1795
     29  C5       -16.7660   50.5480  173.2260 C.3   504  IDS504      0.1863
     30  C5        -8.4750   48.8450  173.6180 C.3   506  IDS506      0.1859
     31  C3       -23.3360   56.7850  173.5140 C.3   502  IDS502      0.1174
     32  C3       -12.4630   48.2640  174.6320 C.3   505  SGN505      0.1055
     33  C6        -7.6910   48.1380  174.7080 C.2   506  IDS506      0.3367
     34  S1       -20.2730   56.4040  169.7870 S.3   503  SGN503      0.0767
     35  O5S      -15.1330   43.9100  171.1420 O.3   505  SGN505     -0.2682
     36  O4S      -15.4070   56.6400  177.2810 O.2   503  SGN503     -0.3452
     37  O6S      -15.9690   58.1170  175.5780 O.3   503  SGN503     -0.2682
     38  C6       -16.2360   50.0810  171.8600 C.2   504  IDS504      0.3367
     39  N        -13.7240   48.2840  176.8530 N.3   505  SGN505     -0.1775
     40  O1S      -15.6770   46.8250  177.5080 O.3   505  SGN505     -0.0534
     41  C5       -13.8820   47.8080  172.6920 C.3   505  SGN505      0.1158
     42  O62      -19.8930   58.8470  175.5060 O.3   502  IDS502     -0.4788
     43  S         -9.6440   48.2200  168.7470 S.3   506  IDS506     -0.0004
     44  O2        -9.8070   48.1780  170.3270 O.3   506  IDS506     -0.2435
     45  O61      -15.1190   50.4020  171.4750 O.3   504  IDS504     -0.4788
     46  C6       -14.0850   47.1830  171.3500 C.3   505  SGN505      0.1035
     47  O2S      -22.2780   52.8660  172.8280 O.2   502  IDS502     -0.3452
     48  O2S      -13.7790   52.2300  177.9790 O.2   504  IDS504     -0.3452
     49  O1S      -20.5540   57.6950  170.3860 O.3   503  SGN503     -0.0534
     50  O4       -11.5970   47.8850  172.3040 O.3   505  SGN505     -0.3401
     51  O62       -6.5930   48.5250  175.0690 O.3   506  IDS506     -0.4788
     52  C5       -21.8370   57.4640  175.4100 C.3   502  IDS502      0.1863
     53  O61      -19.8720   57.1710  176.7270 O.2   502  IDS502     -0.2480
     54  S        -23.5380   53.5420  173.0330 S.3   502  IDS502     -0.0004
     55  O2S       -9.2410   46.9150  168.3050 O.2   506  IDS506     -0.3452
     56  C1       -16.7910   52.4250  174.7000 C.3   504  IDS504      0.1915
     57  O5        -9.5350   48.0410  173.2170 O.3   506  IDS506     -0.3314
     58  C4       -21.8890   57.1200  173.9230 C.3   502  IDS502      0.1267
     59  O3       -18.6160   53.1070  171.6080 O.3   503  SGN503     -0.3874
     60  O4       -15.2710   49.2820  174.6420 O.3   504  IDS504     -0.3406
     61  C4       -18.1630   54.0610  173.7440 C.3   503  SGN503      0.1176
     62  O2S      -13.4660   46.2660  178.2680 O.3   505  SGN505     -0.0534
     63  S2       -14.0880   44.7040  170.5450 S.3   505  SGN505     -0.0008
     64  O4       -18.0930   52.8350  174.3960 O.3   503  SGN503     -0.3401
     65  O6       -16.4400   55.8570  175.2460 O.3   503  SGN503     -0.2520
     66  C3       -17.3250   50.0750  175.5960 C.3   504  IDS504      0.1174
     67  C6       -17.6350   55.4130  175.8510 C.3   503  SGN503      0.1035
     68  C4        -7.6790   49.3150  172.3960 C.3   506  IDS506      0.1202
     69  O61       -8.1650   47.1570  175.2640 O.2   506  IDS506     -0.2480
     70  C3       -19.1710   53.9460  172.6030 C.3   503  SGN503      0.1055
     71  C4       -12.5430   47.4990  173.2790 C.3   505  SGN505      0.1176
     72  O6       -13.8480   45.8300  171.5400 O.3   505  SGN505     -0.2520
     73  N        -20.4110   55.3090  170.9830 N.3   503  SGN503     -0.1775
     74  O3       -11.2430   47.9700  175.3000 O.3   505  SGN505     -0.3874
     75  C5       -18.6220   55.1300  174.7510 C.3   503  SGN503      0.1158
     76  S        -15.1840   51.9460  177.9550 S.3   504  IDS504     -0.0004
     77  O3S      -10.9360   48.6230  168.2350 O.3   506  IDS506     -0.2682
     78  O2       -15.5480   51.5170  176.5220 O.3   504  IDS504     -0.2435
     79  O5S      -14.1270   56.5750  175.2640 O.2   503  SGN503     -0.3452
     80  O5       -14.8970   47.3140  173.5110 O.3   505  SGN505     -0.3413
     81  C3        -8.6120   49.9680  171.3540 C.3   506  IDS506      0.1170
     82  O1S      -15.5100   50.8520  178.7950 O.3   504  IDS504     -0.2682
     83  C4       -16.6400   49.5260  174.3540 C.3   504  IDS504      0.1267
     84  O2S      -18.9130   56.3300  169.2550 O.3   503  SGN503     -0.0534
     85  O3S      -21.2920   55.9970  168.8460 O.3   503  SGN503     -0.0534
     86  O5       -22.3760   56.4100  176.1830 O.3   502  IDS502     -0.3316
     87  O1S      -23.9270   54.3290  171.8960 O.3   502  IDS502     -0.2682
     88  H        -17.5640   51.9450  176.6100 H     504  IDS504      0.0698
     89  H        -23.9700   55.2970  176.5620 H     502  IDS502      0.0936
     90  H        -10.8830   49.5800  173.1500 H     506  IDS506      0.0939
     91  H        -13.4100   46.6860  175.6050 H     505  SGN505      0.0554
     92  H        -19.1950   50.4250  176.1090 H     504  IDS504      0.2100
     93  H        -25.0300   57.7600  173.3270 H     502  IDS502      0.2100
     94  H        -18.4850   55.6600  171.6090 H     503  SGN503      0.0554
     95  H        -24.3600   57.9520  175.6590 H     502  IDS502      0.2126
     96  H         -9.4210   51.7480  171.0850 H     506  IDS506      0.2100
     97  H        -25.0030   55.7030  174.2890 H     502  IDS502      0.0698
     98  H        -10.7070   49.9670  170.8550 H     506  IDS506      0.0698
     99  H         -6.4700   47.7740  172.4030 H     506  IDS506      0.2100
    100  H        -19.8870   57.3100  172.7020 H     503  SGN503      0.0927
    101  H        -15.7230   47.4670  175.3560 H     505  SGN505      0.0927
    102  H        -17.8170   50.6850  173.0820 H     504  IDS504      0.0742
    103  H         -8.8120   49.7540  174.0710 H     506  IDS506      0.0741
    104  H        -23.3220   56.3860  172.5210 H     502  IDS502      0.0649
    105  H        -12.5140   49.3220  174.4770 H     505  SGN505      0.0638
    106  H        -14.2710   49.1430  176.7960 H     505  SGN505      0.1487
    107  H        -13.9170   48.8740  172.6030 H     505  SGN505      0.0648
    108  H        -20.3150   59.3960  174.8740 H     502  IDS502      0.2951
    109  H        -14.5790   50.9510  172.0090 H     504  IDS504      0.2951
    110  H        -13.3960   47.5890  170.6390 H     505  SGN505      0.0610
    111  H        -15.0670   47.3670  170.9670 H     505  SGN505      0.0610
    112  H         -6.2030   49.2740  174.6620 H     506  IDS506      0.2951
    113  H        -22.4400   58.3400  175.5270 H     502  IDS502      0.0741
    114  H        -16.1930   53.2900  174.8980 H     504  IDS504      0.0939
    115  H        -21.5490   57.9600  173.3540 H     502  IDS502      0.0656
    116  H        -19.2420   53.0200  170.8720 H     503  SGN503      0.2100
    117  H        -17.2080   54.3370  173.3480 H     503  SGN503      0.0650
    118  H        -17.0810   49.4640  176.4400 H     504  IDS504      0.0649
    119  H        -18.0190   56.1720  176.5000 H     503  SGN503      0.0610
    120  H        -17.4580   54.5330  176.4330 H     503  SGN503      0.0610
    121  H         -6.9500   50.0220  172.7340 H     506  IDS506      0.0652
    122  H        -20.0980   53.5360  172.9450 H     503  SGN503      0.0638
    123  H        -12.3580   46.4700  173.5060 H     505  SGN505      0.0650
    124  H        -21.3200   55.4510  171.4230 H     503  SGN503      0.1487
    125  H        -11.1790   47.0140  175.4500 H     505  SGN505      0.2100
    126  H        -19.5200   54.7170  175.1610 H     503  SGN503      0.0648
    127  H         -8.1240   49.8860  170.4050 H     506  IDS506      0.0649
    128  H        -17.1010   48.6080  174.0540 H     504  IDS504      0.0656
@<TRIPOS>BOND
     1     1    56    1
     2     1    66    1
     3     1    78    1
     4     1    88    1
     5     2    19    1
     6     2    15    1
     7     2    86    1
     8     2    89    1
     9     3    50    1
    10     3    21    1
    11     3    57    1
    12     3    90    1
    13     4    63    2
    14     5    58    1
    15     5    27    1
    16     6    28    1
    17     6    32    1
    18     6    39    1
    19     6    91    1
    20     7     9    1
    21     8    66    1
    22     8    92    1
    23     9    39    1
    24     9    40    1
    25     9    62    1
    26    10    52    1
    27    10    53    2
    28    10    42    1
    29    11    31    1
    30    11    93    1
    31    12    27    1
    32    12    70    1
    33    12    73    1
    34    12    94    1
    35    13    43    2
    36    14    63    2
    37    15    95    1
    38    16    81    1
    39    16    96    1
    40    17    38    2
    41    18    27    1
    42    18    75    1
    43    19    31    1
    44    19    24    1
    45    19    97    1
    46    20    56    1
    47    20    29    1
    48    21    81    1
    49    21    44    1
    50    21    98    1
    51    22    68    1
    52    22    99    1
    53    23    65    1
    54    23    36    2
    55    23    79    2
    56    23    37    1
    57    24    54    1
    58    25    54    2
    59    26    76    2
    60    27   100    1
    61    28    60    1
    62    28    80    1
    63    28   101    1
    64    29    83    1
    65    29    38    1
    66    29   102    1
    67    30    68    1
    68    30    33    1
    69    30    57    1
    70    30   103    1
    71    31    58    1
    72    31   104    1
    73    32    71    1
    74    32    74    1
    75    32   105    1
    76    33    69    2
    77    33    51    1
    78    34    73    1
    79    34    49    1
    80    34    84    1
    81    34    85    1
    82    35    63    1
    83    38    45    1
    84    39   106    1
    85    41    71    1
    86    41    46    1
    87    41    80    1
    88    41   107    1
    89    42   108    1
    90    43    44    1
    91    43    55    2
    92    43    77    1
    93    45   109    1
    94    46    72    1
    95    46   110    1
    96    46   111    1
    97    47    54    2
    98    48    76    2
    99    50    71    1
   100    51   112    1
   101    52    58    1
   102    52    86    1
   103    52   113    1
   104    54    87    1
   105    56    64    1
   106    56   114    1
   107    58   115    1
   108    59    70    1
   109    59   116    1
   110    60    83    1
   111    61    70    1
   112    61    75    1
   113    61    64    1
   114    61   117    1
   115    63    72    1
   116    65    67    1
   117    66    83    1
   118    66   118    1
   119    67    75    1
   120    67   119    1
   121    67   120    1
   122    68    81    1
   123    68   121    1
   124    70   122    1
   125    71   123    1
   126    73   124    1
   127    74   125    1
   128    75   126    1
   129    76    78    1
   130    76    82    1
   131    81   127    1
   132    83   128    1
