@<TRIPOS>MOLECULE
1BFB_LIGAND_1.pdb
 112 115 0 0 0
SMALL
GASTEIGER

@<TRIPOS>ATOM
      1  N          4.7600    0.4050   49.2060 N.3   302  SGN302     -0.1845
      2  C5        -2.6750    0.8490   53.0160 C.3   304  SGN304      0.1159
      3  O3S        8.4370   -4.6260   56.8340 O.2   301  UAP301     -0.1181
      4  C4         6.8130   -0.2700   52.1640 C.3   302  SGN302      0.1186
      5  O3        -1.0590    4.0180   53.9880 O.3   304  SGN304     -0.3874
      6  C5         8.8500   -3.5510   51.8310 C.2   301  UAP301      0.2060
      7  S          1.1190   -0.8850   49.1300 S.O2  303  IDS303      0.2080
      8  C2         1.1230    1.3510   50.4750 C.3   303  IDS303      0.1684
      9  O3S       -0.1500   -1.2200   49.6330 O.3   303  IDS303     -0.2311
     10  C1         5.1490    1.7140   51.1110 C.3   302  SGN302      0.1795
     11  C3         7.3900   -4.1510   53.6520 C.3   301  UAP301      0.1116
     12  C2         7.9850   -2.9150   54.3330 C.3   301  UAP301      0.1808
     13  O6         8.0750    1.6770   53.6340 O.3   302  SGN302     -0.2131
     14  O4         6.9530   -1.4920   52.8530 O.3   302  SGN302     -0.3308
     15  C5         2.2280    2.6300   52.7490 C.3   303  IDS303      0.1863
     16  C3         5.9930   -0.6020   50.9470 C.3   302  SGN302      0.1055
     17  C2        -2.9750    2.9920   54.9130 C.3   304  SGN304      0.1076
     18  C4         2.9940    2.6360   51.4400 C.3   303  IDS303      0.1267
     19  O5         1.5150    1.3840   52.8510 O.3   303  IDS303     -0.3314
     20  O2S        0.8730   -0.2650   47.8480 O.2   303  IDS303     -0.1181
     21  O62       10.3520   -3.2670   50.2390 O.2   301  UAP301     -0.2417
     22  O62        3.3360    1.7470   54.6340 O.2   303  IDS303     -0.2480
     23  C1         0.4900    1.2030   51.8650 C.3   303  IDS303      0.1916
     24  C6        -2.3050   -0.5060   52.4590 C.3   304  SGN304      0.1076
     25  S1        -3.5940    5.0970   56.6970 S.3   304  SGN304     -0.0198
     26  O5         9.1110   -2.3190   52.3300 O.2   301  UAP301     -0.4538
     27  C6         6.8990    1.1320   54.2210 C.3   302  SGN302      0.1076
     28  O2         9.2610   -3.2550   54.7970 O.3   301  UAP301     -0.2032
     29  O1S        1.9940   -2.0130   48.9910 O.2   303  IDS303     -0.1181
     30  N         -3.6360    4.2800   55.1090 N.3   304  SGN304     -0.1845
     31  O1        -5.1720    2.3140   53.9310 O.3   304  SGN304     -0.3656
     32  S2        -0.7660   -1.8520   54.2900 S.O2  304  SGN304      0.2076
     33  O2S       10.7610   -4.0200   56.7410 O.2   301  UAP301     -0.1181
     34  O1         3.8060    1.4530   51.4250 O.3   302  SGN302     -0.3406
     35  O4        -0.6980    1.9910   52.0630 O.3   304  SGN304     -0.3401
     36  O1S       -4.5890    4.5130   57.5380 O.3   304  SGN304     -0.2626
     37  C6         9.4980   -3.9840   50.7680 C.2   301  UAP301      0.3717
     38  O6        -2.3110   -1.4270   53.5440 O.3   304  SGN304     -0.2131
     39  O3S       -2.3100    4.9350   57.3200 O.3   304  SGN304     -0.2626
     40  O5S       -0.9610   -2.2940   55.6490 O.2   304  SGN304     -0.1181
     41  O61        9.2580   -5.1320   50.3860 O.3   301  UAP301     -0.4750
     42  O1S        9.0630   -2.4380   57.2140 O.3   301  UAP301     -0.2311
     43  C1         8.2360   -1.8150   53.3450 C.3   301  UAP301      0.2340
     44  C3         1.9990    2.5920   50.2910 C.3   303  IDS303      0.1176
     45  O3S        4.6930    2.6490   47.9960 O.3   302  SGN302     -0.2626
     46  O3         1.2400    3.7680   50.2460 O.3   303  IDS303     -0.3863
     47  O4S       -0.2300   -2.9220   53.4890 O.2   304  SGN304     -0.1181
     48  C4         8.0370   -4.4260   52.4080 C.2   301  UAP301     -0.0041
     49  C6         3.2290    2.7200   53.8700 C.2   303  IDS303      0.3367
     50  O3         6.0100   -4.0430   53.4170 O.3   301  UAP301     -0.3848
     51  C4        -1.4790    1.7800   53.2700 C.3   304  SGN304      0.1176
     52  O61        4.0300    3.6700   53.8400 O.3   303  IDS303     -0.4788
     53  O2         1.8840    0.2300   50.1870 O.3   303  IDS303     -0.2047
     54  O5        -3.4350    0.6860   54.2340 O.3   304  SGN304     -0.3416
     55  C5         6.0570    0.7150   53.0450 C.3   302  SGN302      0.1159
     56  O5S        9.9990    1.6320   55.3760 O.2   302  SGN302     -0.1181
     57  C2         5.7530    0.6710   50.2020 C.3   302  SGN302      0.1078
     58  S          9.3980   -3.6150   56.4900 S.O2  301  UAP301      0.2080
     59  O3         6.7420   -1.5050   50.1650 O.3   302  SGN302     -0.3874
     60  S1         5.0330    1.2740   47.7030 S.3   302  SGN302     -0.0198
     61  C3        -2.0890    3.1260   53.6830 C.3   304  SGN304      0.1055
     62  O6S        0.1110   -0.7050   54.2960 O.3   304  SGN304     -0.2311
     63  O5         5.9140    1.8730   52.2840 O.3   302  SGN302     -0.3413
     64  O2S        6.3960    1.1120   47.3260 O.3   302  SGN302     -0.2626
     65  O1S        4.2180    0.6640   46.6670 O.3   302  SGN302     -0.2626
     66  S2         9.1940    2.5710   54.6420 S.O2  302  SGN302      0.2076
     67  O2S       -3.8580    6.4950   56.5270 O.3   304  SGN304     -0.2626
     68  C1        -4.0390    1.9000   54.7070 C.3   304  SGN304      0.1762
     69  O6S        8.3900    3.4070   55.4950 O.3   302  SGN302     -0.2311
     70  O4S       10.0480    3.3890   53.8490 O.2   302  SGN302     -0.1181
     71 H           3.8492    0.6766   49.5762 H     302  SGN302      0.1485
     72 H          -3.2627    1.3263   52.2599 H     304  SGN304      0.0648
     73 H           7.7537    0.1697   51.9059 H     302  SGN302      0.0651
     74 H          -1.4376    4.8717   54.2501 H     304  SGN304      0.2100
     75 H           0.2977    1.4612   49.8029 H     303  IDS303      0.0699
     76 H          -0.0526   -1.6439   50.5000 H     303  IDS303      0.2469
     77 H           5.1657    2.6338   50.5646 H     302  SGN302      0.0927
     78 H           7.5543   -4.9534   54.3405 H     301  UAP301      0.0668
     79 H           7.3028   -2.6023   55.0957 H     301  UAP301      0.0714
     80 H           1.5400    3.4481   52.7976 H     303  IDS303      0.0742
     81 H           5.0523   -1.0459   51.1980 H     302  SGN302      0.0638
     82 H          -2.3844    2.7188   55.7624 H     304  SGN304      0.0554
     83 H           3.6004    3.5120   51.3409 H     303  IDS303      0.0656
     84 H           0.1012    0.2115   51.9687 H     303  IDS303      0.0939
     85 H          -1.3310   -0.4667   52.0177 H     304  SGN304      0.0611
     86 H          -3.0002   -0.8071   51.7034 H     304  SGN304      0.0611
     87 H           6.3919    1.8687   54.8083 H     302  SGN302      0.0611
     88 H           7.1110    0.3177   54.8820 H     302  SGN302      0.0611
     89 H          -4.6200    4.1399   54.8798 H     304  SGN304      0.1485
     90 H          -5.5332    3.1355   54.2991 H     304  SGN304      0.2125
     91 H          -5.4614    4.6166   57.1267 H     304  SGN304      0.2439
     92 H          -2.1248    3.9902   57.4381 H     304  SGN304      0.2439
     93 H           8.6004   -5.6414   50.8173 H     301  UAP301      0.2955
     94 H           8.1439   -2.1925   57.0246 H     301  UAP301      0.2469
     95 H           8.7086   -0.9447   53.7501 H     301  UAP301      0.1085
     96 H           2.5104    2.5279   49.3533 H     303  IDS303      0.0649
     97 H           3.7575    2.7044   48.2464 H     302  SGN302      0.2439
     98 H           0.7545    3.8716   51.0794 H     303  IDS303      0.2100
     99 H           7.8667   -5.3323   51.9447 H     301  UAP301      0.0637
    100 H           5.8439   -3.3186   52.7936 H     301  UAP301      0.2103
    101 H          -0.8305    1.3567   54.0084 H     304  SGN304      0.0650
    102 H           3.8958    4.3772   53.2401 H     303  IDS303      0.2951
    103 H           5.1409    0.2717   53.3753 H     302  SGN302      0.0648
    104 H           6.6821    1.0163   49.7990 H     302  SGN302      0.0554
    105 H           7.5953   -1.1042   49.9365 H     302  SGN302      0.2100
    106 H          -2.6848    3.4777   52.8668 H     304  SGN304      0.0638
    107 H           0.2493   -0.3990   53.3860 H     304  SGN304      0.2469
    108 H           6.9677    1.5107   48.0006 H     302  SGN302      0.2439
    109 H           3.2801    0.7584   46.8959 H     302  SGN302      0.2439
    110 H          -4.7243    6.6117   56.1065 H     304  SGN304      0.2439
    111 H          -4.4603    1.6999   55.6700 H     304  SGN304      0.0925
    112 H           7.8074    2.8514   56.0361 H     302  SGN302      0.2469
@<TRIPOS>BOND
     1     1    57    1
     2     1    60    1
     3     2    51    1
     4     2    24    1
     5     2    54    1
     6     3    58    2
     7     4    16    1
     8     4    55    1
     9     4    14    1
    10     5    61    1
    11     6    48    2
    12     6    37    1
    13     6    26    1
    14     7    53    1
    15     7    29    2
    16     7    20    2
    17     7     9    1
    18     8    23    1
    19     8    44    1
    20     8    53    1
    21    10    57    1
    22    10    34    1
    23    10    63    1
    24    11    12    1
    25    11    48    1
    26    11    50    1
    27    12    43    1
    28    12    28    1
    29    13    27    1
    30    13    66    1
    31    14    43    1
    32    15    18    1
    33    15    49    1
    34    15    19    1
    35    16    57    1
    36    16    59    1
    37    17    68    1
    38    17    61    1
    39    17    30    1
    40    18    34    1
    41    18    44    1
    42    19    23    1
    43    21    37    2
    44    22    49    2
    45    23    35    1
    46    24    38    1
    47    25    30    1
    48    25    36    1
    49    25    67    1
    50    25    39    1
    51    26    43    1
    52    27    55    1
    53    28    58    1
    54    31    68    1
    55    32    38    1
    56    32    47    2
    57    32    40    2
    58    32    62    1
    59    33    58    2
    60    35    51    1
    61    37    41    1
    62    42    58    1
    63    44    46    1
    64    45    60    1
    65    49    52    1
    66    51    61    1
    67    54    68    1
    68    55    63    1
    69    56    66    2
    70    60    65    1
    71    60    64    1
    72    66    70    2
    73    66    69    1
    74     1    71    1
    75     2    72    1
    76     4    73    1
    77     5    74    1
    78     8    75    1
    79     9    76    1
    80    10    77    1
    81    11    78    1
    82    12    79    1
    83    15    80    1
    84    16    81    1
    85    17    82    1
    86    18    83    1
    87    23    84    1
    88    24    85    1
    89    24    86    1
    90    27    87    1
    91    27    88    1
    92    30    89    1
    93    31    90    1
    94    36    91    1
    95    39    92    1
    96    41    93    1
    97    42    94    1
    98    43    95    1
    99    44    96    1
   100    45    97    1
   101    46    98    1
   102    48    99    1
   103    50   100    1
   104    51   101    1
   105    52   102    1
   106    55   103    1
   107    57   104    1
   108    59   105    1
   109    61   106    1
   110    62   107    1
   111    64   108    1
   112    65   109    1
   113    67   110    1
   114    68   111    1
   115    69   112    1
