@<TRIPOS>MOLECULE
1BFB_LIGAND_1_uncharged.pdb
 102 105 0 0 0
SMALL
GASTEIGER

@<TRIPOS>ATOM
      1  N          4.7600    0.4050   49.2060 N.3   302  SGN302     -0.1775
      2  C5        -2.6750    0.8490   53.0160 C.3   304  SGN304      0.1158
      3  O3S        8.4370   -4.6260   56.8340 O.2   301  UAP301     -0.3452
      4  C4         6.8130   -0.2700   52.1640 C.3   302  SGN302      0.1186
      5  O3        -1.0590    4.0180   53.9880 O.3   304  SGN304     -0.3874
      6  C5         8.8500   -3.5510   51.8310 C.2   301  UAP301      0.2060
      7  S          1.1190   -0.8850   49.1300 S.3   303  IDS303     -0.0004
      8  C2         1.1230    1.3510   50.4750 C.3   303  IDS303      0.1644
      9  O3S       -0.1500   -1.2200   49.6330 O.3   303  IDS303     -0.2682
     10  C1         5.1490    1.7140   51.1110 C.3   302  SGN302      0.1795
     11  C3         7.3900   -4.1510   53.6520 C.3   301  UAP301      0.1114
     12  C2         7.9850   -2.9150   54.3330 C.3   301  UAP301      0.1768
     13  O6         8.0750    1.6770   53.6340 O.3   302  SGN302     -0.2520
     14  O4         6.9530   -1.4920   52.8530 O.3   302  SGN302     -0.3309
     15  C5         2.2280    2.6300   52.7490 C.3   303  IDS303      0.1863
     16  C3         5.9930   -0.6020   50.9470 C.3   302  SGN302      0.1055
     17  C2        -2.9750    2.9920   54.9130 C.3   304  SGN304      0.1079
     18  C4         2.9940    2.6360   51.4400 C.3   303  IDS303      0.1267
     19  O5         1.5150    1.3840   52.8510 O.3   303  IDS303     -0.3314
     20  O2S        0.8730   -0.2650   47.8480 O.2   303  IDS303     -0.3452
     21  O62       10.3520   -3.2670   50.2390 O.2   301  UAP301     -0.2417
     22  O62        3.3360    1.7470   54.6340 O.2   303  IDS303     -0.2480
     23  C1         0.4900    1.2030   51.8650 C.3   303  IDS303      0.1915
     24  C6        -2.3050   -0.5060   52.4590 C.3   304  SGN304      0.1035
     25  S1        -3.5940    5.0970   56.6970 S.3   304  SGN304      0.0767
     26  O5         9.1110   -2.3190   52.3300 O.2   301  UAP301     -0.4538
     27  C6         6.8990    1.1320   54.2210 C.3   302  SGN302      0.1035
     28  O2         9.2610   -3.2550   54.7970 O.3   301  UAP301     -0.2421
     29  O1S        1.9940   -2.0130   48.9910 O.2   303  IDS303     -0.3452
     30  N         -3.6360    4.2800   55.1090 N.3   304  SGN304     -0.1775
     31  O1        -5.1720    2.3140   53.9310 O.3   304  SGN304     -0.3656
     32  S2        -0.7660   -1.8520   54.2900 S.3   304  SGN304     -0.0008
     33  O2S       10.7610   -4.0200   56.7410 O.2   301  UAP301     -0.3452
     34  O1         3.8060    1.4530   51.4250 O.3   302  SGN302     -0.3406
     35  O4        -0.6980    1.9910   52.0630 O.3   304  SGN304     -0.3401
     36  O1S       -4.5890    4.5130   57.5380 O.3   304  SGN304     -0.0534
     37  C6         9.4980   -3.9840   50.7680 C.2   301  UAP301      0.3717
     38  O6        -2.3110   -1.4270   53.5440 O.3   304  SGN304     -0.2520
     39  O3S       -2.3100    4.9350   57.3200 O.3   304  SGN304     -0.0534
     40  O5S       -0.9610   -2.2940   55.6490 O.2   304  SGN304     -0.3452
     41  O61        9.2580   -5.1320   50.3860 O.3   301  UAP301     -0.4750
     42  O1S        9.0630   -2.4380   57.2140 O.3   301  UAP301     -0.2682
     43  C1         8.2360   -1.8150   53.3450 C.3   301  UAP301      0.2339
     44  C3         1.9990    2.5920   50.2910 C.3   303  IDS303      0.1174
     45  O3S        4.6930    2.6490   47.9960 O.3   302  SGN302     -0.0534
     46  O3         1.2400    3.7680   50.2460 O.3   303  IDS303     -0.3863
     47  O4S       -0.2300   -2.9220   53.4890 O.2   304  SGN304     -0.3452
     48  C4         8.0370   -4.4260   52.4080 C.2   301  UAP301     -0.0041
     49  C6         3.2290    2.7200   53.8700 C.2   303  IDS303      0.3367
     50  O3         6.0100   -4.0430   53.4170 O.3   301  UAP301     -0.3848
     51  C4        -1.4790    1.7800   53.2700 C.3   304  SGN304      0.1176
     52  O61        4.0300    3.6700   53.8400 O.3   303  IDS303     -0.4788
     53  O2         1.8840    0.2300   50.1870 O.3   303  IDS303     -0.2435
     54  O5        -3.4350    0.6860   54.2340 O.3   304  SGN304     -0.3416
     55  C5         6.0570    0.7150   53.0450 C.3   302  SGN302      0.1158
     56  O5S        9.9990    1.6320   55.3760 O.2   302  SGN302     -0.3452
     57  C2         5.7530    0.6710   50.2020 C.3   302  SGN302      0.1081
     58  S          9.3980   -3.6150   56.4900 S.3   301  UAP301     -0.0003
     59  O3         6.7420   -1.5050   50.1650 O.3   302  SGN302     -0.3874
     60  S1         5.0330    1.2740   47.7030 S.3   302  SGN302      0.0767
     61  C3        -2.0890    3.1260   53.6830 C.3   304  SGN304      0.1055
     62  O6S        0.1110   -0.7050   54.2960 O.3   304  SGN304     -0.2682
     63  O5         5.9140    1.8730   52.2840 O.3   302  SGN302     -0.3413
     64  O2S        6.3960    1.1120   47.3260 O.3   302  SGN302     -0.0534
     65  O1S        4.2180    0.6640   46.6670 O.3   302  SGN302     -0.0534
     66  S2         9.1940    2.5710   54.6420 S.3   302  SGN302     -0.0008
     67  O2S       -3.8580    6.4950   56.5270 O.3   304  SGN304     -0.0534
     68  C1        -4.0390    1.9000   54.7070 C.3   304  SGN304      0.1762
     69  O6S        8.3900    3.4070   55.4950 O.3   302  SGN302     -0.2682
     70  O4S       10.0480    3.3890   53.8490 O.2   302  SGN302     -0.3452
     71  H          3.8490    0.6770   49.5760 H     302  SGN302      0.1487
     72  H         -3.2630    1.3260   52.2600 H     304  SGN304      0.0648
     73  H          7.7540    0.1700   51.9060 H     302  SGN302      0.0651
     74  H         -1.4380    4.8720   54.2500 H     304  SGN304      0.2100
     75  H          0.2980    1.4610   49.8030 H     303  IDS303      0.0698
     76  H          5.1660    2.6340   50.5650 H     302  SGN302      0.0927
     77  H          7.5540   -4.9530   54.3400 H     301  UAP301      0.0668
     78  H          7.3030   -2.6020   55.0960 H     301  UAP301      0.0712
     79  H          1.5400    3.4480   52.7980 H     303  IDS303      0.0742
     80  H          5.0520   -1.0460   51.1980 H     302  SGN302      0.0638
     81  H         -2.3840    2.7190   55.7620 H     304  SGN304      0.0554
     82  H          3.6000    3.5120   51.3410 H     303  IDS303      0.0656
     83  H          0.1010    0.2110   51.9690 H     303  IDS303      0.0939
     84  H         -1.3310   -0.4670   52.0180 H     304  SGN304      0.0610
     85  H         -3.0000   -0.8070   51.7030 H     304  SGN304      0.0610
     86  H          6.3920    1.8690   54.8080 H     302  SGN302      0.0610
     87  H          7.1110    0.3180   54.8820 H     302  SGN302      0.0610
     88  H         -4.6200    4.1400   54.8800 H     304  SGN304      0.1487
     89  H         -5.5330    3.1350   54.2990 H     304  SGN304      0.2125
     90  H          8.6000   -5.6410   50.8170 H     301  UAP301      0.2955
     91  H          8.7090   -0.9450   53.7500 H     301  UAP301      0.1085
     92  H          2.5100    2.5280   49.3530 H     303  IDS303      0.0649
     93  H          0.7540    3.8720   51.0790 H     303  IDS303      0.2100
     94  H          7.8670   -5.3320   51.9450 H     301  UAP301      0.0637
     95  H          5.8440   -3.3190   52.7940 H     301  UAP301      0.2103
     96  H         -0.8310    1.3570   54.0080 H     304  SGN304      0.0650
     97  H          3.8960    4.3770   53.2400 H     303  IDS303      0.2951
     98  H          5.1410    0.2720   53.3750 H     302  SGN302      0.0648
     99  H          6.6820    1.0160   49.7990 H     302  SGN302      0.0554
    100  H          7.5950   -1.1040   49.9370 H     302  SGN302      0.2100
    101  H         -2.6850    3.4780   52.8670 H     304  SGN304      0.0638
    102  H         -4.4600    1.7000   55.6700 H     304  SGN304      0.0925
@<TRIPOS>BOND
     1     1    57    1
     2     1    60    1
     3     1    71    1
     4     2    51    1
     5     2    24    1
     6     2    54    1
     7     2    72    1
     8     3    58    2
     9     4    16    1
    10     4    55    1
    11     4    14    1
    12     4    73    1
    13     5    61    1
    14     5    74    1
    15     6    48    2
    16     6    37    1
    17     6    26    1
    18     7    53    1
    19     7    29    2
    20     7    20    2
    21     7     9    1
    22     8    23    1
    23     8    44    1
    24     8    53    1
    25     8    75    1
    26    10    57    1
    27    10    34    1
    28    10    63    1
    29    10    76    1
    30    11    12    1
    31    11    48    1
    32    11    50    1
    33    11    77    1
    34    12    43    1
    35    12    28    1
    36    12    78    1
    37    13    27    1
    38    13    66    1
    39    14    43    1
    40    15    18    1
    41    15    49    1
    42    15    19    1
    43    15    79    1
    44    16    57    1
    45    16    59    1
    46    16    80    1
    47    17    68    1
    48    17    61    1
    49    17    30    1
    50    17    81    1
    51    18    34    1
    52    18    44    1
    53    18    82    1
    54    19    23    1
    55    21    37    2
    56    22    49    2
    57    23    35    1
    58    23    83    1
    59    24    38    1
    60    24    84    1
    61    24    85    1
    62    25    30    1
    63    25    36    1
    64    25    67    1
    65    25    39    1
    66    26    43    1
    67    27    55    1
    68    27    86    1
    69    27    87    1
    70    28    58    1
    71    30    88    1
    72    31    68    1
    73    31    89    1
    74    32    38    1
    75    32    47    2
    76    32    40    2
    77    32    62    1
    78    33    58    2
    79    35    51    1
    80    37    41    1
    81    41    90    1
    82    42    58    1
    83    43    91    1
    84    44    46    1
    85    44    92    1
    86    45    60    1
    87    46    93    1
    88    48    94    1
    89    49    52    1
    90    50    95    1
    91    51    61    1
    92    51    96    1
    93    52    97    1
    94    54    68    1
    95    55    63    1
    96    55    98    1
    97    56    66    2
    98    57    99    1
    99    59   100    1
   100    60    65    1
   101    60    64    1
   102    61   101    1
   103    66    70    2
   104    66    69    1
   105    68   102    1
