@<TRIPOS>MOLECULE
1BFC_LIGAND_1.pdb
 168 173 0 0 0
SMALL
GASTEIGER

@<TRIPOS>ATOM
      1  O2S       -8.9710    4.2230   48.5260 O.3   306  SGN306     -0.2626
      2  C6         9.3120    1.2480   53.5030 C.3   302  SGN302      0.1076
      3  O2S       12.6990   -4.1100   56.1400 O.2   301  UAP301     -0.1181
      4  O1S        3.8350   -2.0990   48.8550 O.2   303  IDS303     -0.1181
      5  C2         8.0080    0.6590   49.5770 C.3   302  SGN302      0.1078
      6  C3         1.0310    3.0310   54.0730 C.3   304  SGN304      0.1055
      7  C1        -5.5390    3.2610   55.0770 C.3   305  IDS305      0.1916
      8  O4         1.8730    1.9690   52.0850 O.3   304  SGN304     -0.3401
      9  C2         9.7480   -3.2160   53.8340 C.3   301  UAP301      0.1808
     10  O3        -6.7980    2.6930   51.5390 O.3   306  SGN306     -0.3874
     11  C6        11.2580   -4.3300   50.2450 C.2   301  UAP301      0.3717
     12  N         -9.5040    2.8500   50.6560 N.3   306  SGN306     -0.1845
     13  S1       -10.0900    3.6010   49.1740 S.3   306  SGN306     -0.0198
     14  O3        -2.9420    1.7560   57.2050 O.3   305  IDS305     -0.3863
     15  N          6.9450    0.2980   48.6880 N.3   302  SGN302     -0.1845
     16  O2        -5.3930    2.6820   57.4190 O.3   305  IDS305     -0.2047
     17  C3         8.1710   -0.5810   50.4310 C.3   302  SGN302      0.1055
     18  C5         0.1730    0.8430   53.3070 C.3   304  SGN304      0.1159
     19  O4S       12.9420    2.0980   53.1070 O.2   302  SGN302     -0.1181
     20  O62        5.6150    2.2720   54.3620 O.2   303  IDS303     -0.2480
     21  S         11.3800   -3.6200   55.9350 S.O2  301  UAP301      0.2080
     22  O4S        2.5510   -2.6940   53.3900 O.2   304  SGN304     -0.1181
     23  C2        -4.9420    2.3220   56.1360 C.3   305  IDS305      0.1684
     24  C2        -8.9230    3.6860   51.6860 C.3   306  SGN306      0.1076
     25  O4S       -5.3420    6.8970   56.7830 O.2   306  SGN306     -0.1181
     26  O2        10.9600   -3.7740   54.2500 O.3   301  UAP301     -0.2032
     27  O2         4.0270    0.2040   49.8490 O.3   303  IDS303     -0.2047
     28  S2        11.7690    2.0130   53.8980 S.O2  302  SGN302      0.2076
     29  C2         0.5140    2.6950   55.4410 C.3   304  SGN304      0.1078
     30  C3         8.9880   -4.3080   53.1240 C.3   301  UAP301      0.1116
     31  C4         1.4000    1.7190   53.3940 C.3   304  SGN304      0.1176
     32  O1S       -6.5600    1.5310   59.4680 O.2   305  IDS305     -0.1181
     33  O61       11.0100   -5.4510   49.7810 O.2   301  UAP301     -0.2417
     34  O1       -10.8220    2.9970   52.9930 O.3   306  SGN306     -0.3656
     35  O1S      -10.6370    2.5620   48.3400 O.3   306  SGN306     -0.2626
     36  O6S        2.0570   -1.3180   55.2290 O.2   304  SGN304     -0.1181
     37  O6        10.6270    1.0150   53.1000 O.3   302  SGN302     -0.2131
     38  C4        -7.4170    3.5400   53.6640 C.3   306  SGN306      0.1176
     39  O3S        1.8460   -1.2630   49.7780 O.2   303  IDS303     -0.1181
     40  C6         5.6670    2.9630   53.3670 C.2   303  IDS303      0.3367
     41  N          0.0420    3.9130   56.0330 N.3   304  SGN304     -0.1845
     42  C1         7.4940    1.8470   50.3880 C.3   302  SGN302      0.1795
     43  O2S       -6.6570    0.4630   57.3710 O.2   305  IDS305     -0.1181
     44  C5         8.4580    0.8740   52.3480 C.3   302  SGN302      0.1159
     45  O2S        2.6170   -0.3450   47.8730 O.3   303  IDS303     -0.2311
     46  O3         8.7420   -1.6230   49.6740 O.3   302  SGN302     -0.3874
     47  O4         8.9290   -1.4780   52.4170 O.3   302  SGN302     -0.3308
     48  O61       -2.6810    1.6120   51.8230 O.2   305  IDS305     -0.2480
     49  S          3.0370   -0.9580   49.0770 S.O2  303  IDS303      0.2080
     50  O3S      -11.1110    4.5710   49.4750 O.3   306  SGN306     -0.2626
     51  O3S       10.3950   -4.3500   56.6800 O.3   301  UAP301     -0.2311
     52  C3        -7.9070    2.8170   52.4190 C.3   306  SGN306      0.1055
     53  C1        10.1240   -2.0970   52.8860 C.3   301  UAP301      0.2340
     54  O4        -6.6310    2.6360   54.4380 O.3   306  SGN306     -0.3401
     55  O1         6.1510    1.5790   50.7860 O.3   302  SGN302     -0.3406
     56  C1         2.9610    1.1340   51.7220 C.3   303  IDS303      0.1916
     57  O6S       -6.4320    8.2290   55.1950 O.2   306  SGN306     -0.1181
     58  O5        -9.4990    4.7900   53.7320 O.3   306  SGN306     -0.3416
     59  C6        -8.0600    4.8220   55.6660 C.3   306  SGN306      0.1076
     60  O5S       -7.6410    7.4300   57.0500 O.3   306  SGN306     -0.2311
     61  O5         4.1160    1.3530   52.5410 O.3   303  IDS303     -0.3314
     62  C4         9.0680   -0.3130   51.6030 C.3   302  SGN302      0.1186
     63  C6         0.4260   -0.4480   52.5430 C.3   304  SGN304      0.1076
     64  C6        -3.1430    2.5970   52.4240 C.2   305  IDS305      0.3367
     65  O1        -1.6640    2.4530   54.6150 O.3   304  SGN304     -0.3406
     66  O2S        0.2060    5.5120   58.0220 O.3   304  SGN304     -0.2626
     67  O3S       -8.0050    2.3730   57.7610 O.3   305  IDS305     -0.2311
     68  O5S       12.0720    1.3960   55.1390 O.2   302  SGN302     -0.1181
     69  S2        -6.5890    7.1300   56.1100 S.O2  306  SGN306      0.2076
     70  O5S        1.0570   -3.4260   55.0390 O.3   304  SGN304     -0.2311
     71  C4         5.2690    2.6940   50.8940 C.3   303  IDS303      0.1267
     72  S         -6.7330    1.7270   58.0450 S.O2  305  IDS305      0.2080
     73  C1       -10.0590    4.1300   52.6040 C.3   306  SGN306      0.1762
     74  C4         9.5280   -4.6060   51.8100 C.2   301  UAP301     -0.0041
     75  O6        -7.0620    5.7090   55.1650 O.3   306  SGN306     -0.2131
     76  O62       -2.9640    3.7980   52.0920 O.3   305  IDS305     -0.4788
     77  O1S       11.3510   -2.2320   56.2340 O.2   301  UAP301     -0.1181
     78  O3S        1.5080    3.5580   58.1850 O.3   304  SGN304     -0.2626
     79  O5         8.3690    2.0170   51.5050 O.3   302  SGN302     -0.3413
     80  O5        -0.2680    0.5930   54.6340 O.3   304  SGN304     -0.3413
     81  O3S        6.4640    2.5310   47.5080 O.3   302  SGN302     -0.2626
     82  C4        -2.9620    1.9320   54.8420 C.3   305  IDS305      0.1267
     83  O1S        5.8170    0.5770   46.3850 O.3   302  SGN302     -0.2626
     84  O62       12.2940   -3.7210   49.8900 O.3   301  UAP301     -0.4750
     85  C1        -0.6630    1.7620   55.3350 C.3   304  SGN304      0.1795
     86  O5        -4.5960    3.4980   54.0540 O.3   305  IDS305     -0.3314
     87  O3         3.2080    3.6170   50.0180 O.3   303  IDS303     -0.3863
     88  O6S       11.1370    3.2810   54.1460 O.3   302  SGN302     -0.2311
     89  C5         4.6820    2.6470   52.2980 C.3   303  IDS303      0.1863
     90  C3        -3.4660    2.5020   56.1550 C.3   305  IDS305      0.1176
     91  O61        6.3210    3.9930   53.2870 O.3   303  IDS303     -0.4788
     92  O3         2.1530    3.8740   54.2200 O.3   304  SGN304     -0.3874
     93  C5        10.4940   -3.8370   51.2650 C.2   301  UAP301      0.2060
     94  S1         0.2370    4.1030   57.7830 S.3   304  SGN304     -0.0198
     95  O6         0.1900   -1.5850   53.3770 O.3   304  SGN304     -0.2131
     96  O5        10.9080   -2.6700   51.8490 O.2   301  UAP301     -0.4538
     97  O1S       -0.8160    3.4410   58.5020 O.3   304  SGN304     -0.2626
     98  C2         3.3230    1.2940   50.2450 C.3   303  IDS303      0.1684
     99  C5        -8.5940    3.9810   54.5190 C.3   306  SGN306      0.1159
    100  C3         4.0830    2.5450   49.9190 C.3   303  IDS303      0.1176
    101  O2S        8.0530    1.1870   46.5780 O.3   302  SGN302     -0.2626
    102  O3         7.6440   -3.9870   53.1160 O.3   301  UAP301     -0.3848
    103  C5        -3.9260    2.3020   53.6960 C.3   305  IDS305      0.1863
    104  S1         6.8050    1.1920   47.2060 S.3   302  SGN302     -0.0198
    105  S2         1.5310   -2.2910   54.3070 S.O2  304  SGN304      0.2076
    106 H          -8.2963    3.5535   48.3325 H     306  SGN306      0.2439
    107 H           9.0715    0.6453   54.3538 H     302  SGN302      0.0611
    108 H           9.1637    2.2693   53.7857 H     302  SGN302      0.0611
    109 H           8.9360    0.9391   49.1240 H     302  SGN302      0.0554
    110 H           0.3051    3.5424   53.4760 H     304  SGN304      0.0638
    111 H          -5.8272    4.1636   55.5742 H     305  IDS305      0.0939
    112 H           9.1406   -2.8343   54.6279 H     301  UAP301      0.0714
    113 H          -7.0762    2.2343   50.7309 H     306  SGN306      0.2100
    114 H         -10.2953    2.3635   51.0773 H     306  SGN306      0.1485
    115 H          -3.2606    2.1156   58.0477 H     305  IDS305      0.2100
    116 H           6.0685    0.4107   49.1973 H     302  SGN302      0.1485
    117 H           7.1985   -0.8610   50.7784 H     302  SGN302      0.0638
    118 H          -0.5876    1.3489   52.7498 H     304  SGN304      0.0648
    119 H          -5.2295    1.3194   55.8972 H     305  IDS305      0.0699
    120 H          -8.4344    4.5595   51.3077 H     306  SGN306      0.0554
    121 H           1.2898    2.2358   56.0174 H     304  SGN304      0.0554
    122 H           9.1060   -5.2255   53.6617 H     301  UAP301      0.0668
    123 H           2.1640    1.2329   53.9639 H     304  SGN304      0.0650
    124 H         -11.1902    2.5688   52.2043 H     306  SGN306      0.2125
    125 H          -9.9464    1.9110   48.1397 H     306  SGN306      0.2439
    126 H          -6.8477    4.3952   53.3649 H     306  SGN306      0.0650
    127 H          -0.9543    3.9863   55.8272 H     304  SGN304      0.1485
    128 H           7.4864    2.7541   49.8205 H     302  SGN302      0.0927
    129 H           7.4824    0.5760   52.6708 H     302  SGN302      0.0648
    130 H           3.3938   -0.1094   47.3420 H     303  IDS303      0.2469
    131 H           9.6220   -1.3546   49.3666 H     302  SGN302      0.2100
    132 H         -10.7386    5.2687   50.0366 H     306  SGN306      0.2439
    133 H          10.4463   -5.2906   56.4488 H     301  UAP301      0.2469
    134 H          -8.3353    1.8762   52.6952 H     306  SGN306      0.0638
    135 H          10.7037   -1.3297   53.3551 H     301  UAP301      0.1085
    136 H           2.6331    0.1288   51.8865 H     303  IDS303      0.0939
    137 H          -7.6317    4.1835   56.4101 H     306  SGN306      0.0611
    138 H          -8.8577    5.3850   56.1038 H     306  SGN306      0.0611
    139 H          -7.3938    8.2076   57.5746 H     306  SGN306      0.2469
    140 H          10.0867   -0.1102   51.3460 H     302  SGN302      0.0651
    141 H           1.4418   -0.4638   52.2073 H     304  SGN304      0.0611
    142 H          -0.2423   -0.4897   51.7084 H     304  SGN304      0.0611
    143 H           0.9234    5.9395   57.5286 H     304  SGN304      0.2439
    144 H          -8.0445    3.2257   58.2217 H     305  IDS305      0.2469
    145 H           1.7881   -3.8117   55.5466 H     304  SGN304      0.2469
    146 H           5.8013    3.5975   50.6811 H     303  IDS303      0.0656
    147 H         -10.7124    4.8091   52.0973 H     306  SGN306      0.0925
    148 H           9.1679   -5.4180   51.2847 H     301  UAP301      0.0637
    149 H          -3.3475    4.4864   52.5990 H     305  IDS305      0.2951
    150 H           2.2193    4.0046   57.6998 H     304  SGN304      0.2439
    151 H           5.5985    2.5535   47.9454 H     302  SGN302      0.2439
    152 H          -2.9174    0.8637   54.8832 H     305  IDS305      0.0656
    153 H           4.9615    0.5928   46.8418 H     302  SGN302      0.2439
    154 H          12.4822   -2.8727   50.2407 H     301  UAP301      0.2955
    155 H          -1.0261    1.4681   56.2977 H     304  SGN304      0.0927
    156 H           3.6792    4.4392   49.8108 H     303  IDS303      0.2100
    157 H          10.9271    3.7084   53.3009 H     302  SGN302      0.2469
    158 H           3.9299    3.4070   52.3372 H     303  IDS303      0.0742
    159 H          -3.1846    3.5271   56.2769 H     305  IDS305      0.0649
    160 H           6.3226    4.4863   52.4903 H     303  IDS303      0.2951
    161 H           2.8243    3.4277   54.7595 H     304  SGN304      0.2100
    162 H          -1.6723    3.8077   58.2316 H     304  SGN304      0.2439
    163 H           2.4000    1.3804   49.7108 H     303  IDS303      0.0699
    164 H          -9.1162    3.1222   54.8859 H     306  SGN306      0.0648
    165 H           4.4804    2.5072   48.9263 H     303  IDS303      0.0649
    166 H           8.7073    1.6102   47.1556 H     302  SGN302      0.2439
    167 H           7.5128   -3.1564   52.6325 H     301  UAP301      0.2103
    168 H          -4.6038    1.4902   53.5331 H     305  IDS305      0.0742
@<TRIPOS>BOND
     1     1    13    1
     2     2    44    1
     3     2    37    1
     4     3    21    2
     5     4    49    2
     6     5    42    1
     7     5    17    1
     8     5    15    1
     9     6    29    1
    10     6    31    1
    11     6    92    1
    12     7    23    1
    13     7    86    1
    14     7    54    1
    15     8    56    1
    16     8    31    1
    17     9    53    1
    18     9    30    1
    19     9    26    1
    20    10    52    1
    21    11    93    1
    22    11    33    2
    23    11    84    1
    24    12    24    1
    25    12    13    1
    26    13    35    1
    27    13    50    1
    28    14    90    1
    29    15   104    1
    30    16    23    1
    31    16    72    1
    32    17    62    1
    33    17    46    1
    34    18    31    1
    35    18    63    1
    36    18    80    1
    37    19    28    2
    38    20    40    2
    39    21    26    1
    40    21    77    2
    41    21    51    1
    42    22   105    2
    43    23    90    1
    44    24    73    1
    45    24    52    1
    46    25    69    2
    47    27    98    1
    48    27    49    1
    49    28    37    1
    50    28    68    2
    51    28    88    1
    52    29    85    1
    53    29    41    1
    54    30    74    1
    55    30   102    1
    56    32    72    2
    57    34    73    1
    58    36   105    2
    59    38    52    1
    60    38    99    1
    61    38    54    1
    62    39    49    2
    63    40    89    1
    64    40    91    1
    65    41    94    1
    66    42    55    1
    67    42    79    1
    68    43    72    2
    69    44    62    1
    70    44    79    1
    71    45    49    1
    72    47    53    1
    73    47    62    1
    74    48    64    2
    75    53    96    1
    76    55    71    1
    77    56    98    1
    78    56    61    1
    79    57    69    2
    80    58    73    1
    81    58    99    1
    82    59    99    1
    83    59    75    1
    84    60    69    1
    85    61    89    1
    86    63    95    1
    87    64   103    1
    88    64    76    1
    89    65    85    1
    90    65    82    1
    91    66    94    1
    92    67    72    1
    93    69    75    1
    94    70   105    1
    95    71   100    1
    96    71    89    1
    97    74    93    2
    98    78    94    1
    99    80    85    1
   100    81   104    1
   101    82    90    1
   102    82   103    1
   103    83   104    1
   104    86   103    1
   105    87   100    1
   106    93    96    1
   107    94    97    1
   108    95   105    1
   109    98   100    1
   110   101   104    1
   111     1   106    1
   112     2   107    1
   113     2   108    1
   114     5   109    1
   115     6   110    1
   116     7   111    1
   117     9   112    1
   118    10   113    1
   119    12   114    1
   120    14   115    1
   121    15   116    1
   122    17   117    1
   123    18   118    1
   124    23   119    1
   125    24   120    1
   126    29   121    1
   127    30   122    1
   128    31   123    1
   129    34   124    1
   130    35   125    1
   131    38   126    1
   132    41   127    1
   133    42   128    1
   134    44   129    1
   135    45   130    1
   136    46   131    1
   137    50   132    1
   138    51   133    1
   139    52   134    1
   140    53   135    1
   141    56   136    1
   142    59   137    1
   143    59   138    1
   144    60   139    1
   145    62   140    1
   146    63   141    1
   147    63   142    1
   148    66   143    1
   149    67   144    1
   150    70   145    1
   151    71   146    1
   152    73   147    1
   153    74   148    1
   154    76   149    1
   155    78   150    1
   156    81   151    1
   157    82   152    1
   158    83   153    1
   159    84   154    1
   160    85   155    1
   161    87   156    1
   162    88   157    1
   163    89   158    1
   164    90   159    1
   165    91   160    1
   166    92   161    1
   167    97   162    1
   168    98   163    1
   169    99   164    1
   170   100   165    1
   171   101   166    1
   172   102   167    1
   173   103   168    1
