@<TRIPOS>MOLECULE
1BFC_LIGAND_1_uncharged.pdb
 153 158 0 0 0
SMALL
GASTEIGER

@<TRIPOS>ATOM
      1  O2S       -8.9710    4.2230   48.5260 O.3   306  SGN306     -0.0534
      2  C6         9.3120    1.2480   53.5030 C.3   302  SGN302      0.1035
      3  O2S       12.6990   -4.1100   56.1400 O.2   301  UAP301     -0.3452
      4  O1S        3.8350   -2.0990   48.8550 O.2   303  IDS303     -0.3452
      5  C2         8.0080    0.6590   49.5770 C.3   302  SGN302      0.1081
      6  C3         1.0310    3.0310   54.0730 C.3   304  SGN304      0.1055
      7  C1        -5.5390    3.2610   55.0770 C.3   305  IDS305      0.1915
      8  O4         1.8730    1.9690   52.0850 O.3   304  SGN304     -0.3401
      9  C2         9.7480   -3.2160   53.8340 C.3   301  UAP301      0.1623
     10  O3        -6.7980    2.6930   51.5390 O.3   306  SGN306     -0.3874
     11  C6        11.2580   -4.3300   50.2450 C.2   301  UAP301      0.3410
     12  N         -9.5040    2.8500   50.6560 N.3   306  SGN306     -0.1775
     13  S1       -10.0900    3.6010   49.1740 S.3   306  SGN306      0.0767
     14  O3        -2.9420    1.7560   57.2050 O.3   305  IDS305     -0.3863
     15  N          6.9450    0.2980   48.6880 N.3   302  SGN302     -0.1775
     16  O2        -5.3930    2.6820   57.4190 O.3   305  IDS305     -0.2435
     17  C3         8.1710   -0.5810   50.4310 C.3   302  SGN302      0.1055
     18  C5         0.1730    0.8430   53.3070 C.3   304  SGN304      0.1158
     19  O4S       12.9420    2.0980   53.1070 O.2   302  SGN302     -0.3452
     20  O62        5.6150    2.2720   54.3620 O.2   303  IDS303     -0.2480
     21  S         11.3800   -3.6200   55.9350 S.3   301  UAP301     -0.0004
     22  O4S        2.5510   -2.6940   53.3900 O.2   304  SGN304     -0.3452
     23  C2        -4.9420    2.3220   56.1360 C.3   305  IDS305      0.1644
     24  C2        -8.9230    3.6860   51.6860 C.3   306  SGN306      0.1079
     25  O4S       -5.3420    6.8970   56.7830 O.2   306  SGN306     -0.3452
     26  O2        10.9600   -3.7740   54.2500 O.3   301  UAP301     -0.2436
     27  O2         4.0270    0.2040   49.8490 O.3   303  IDS303     -0.2435
     28  S2        11.7690    2.0130   53.8980 S.3   302  SGN302     -0.0008
     29  C2         0.5140    2.6950   55.4410 C.3   304  SGN304      0.1081
     30  C3         8.9880   -4.3080   53.1240 C.3   301  UAP301      0.0948
     31  C4         1.4000    1.7190   53.3940 C.3   304  SGN304      0.1176
     32  O1S       -6.5600    1.5310   59.4680 O.2   305  IDS305     -0.3452
     33  O61       11.0100   -5.4510   49.7810 O.2   301  UAP301     -0.2476
     34  O1       -10.8220    2.9970   52.9930 O.3   306  SGN306     -0.3656
     35  O1S      -10.6370    2.5620   48.3400 O.3   306  SGN306     -0.0534
     36  O6S        2.0570   -1.3180   55.2290 O.2   304  SGN304     -0.3452
     37  O6        10.6270    1.0150   53.1000 O.3   302  SGN302     -0.2520
     38  C4        -7.4170    3.5400   53.6640 C.3   306  SGN306      0.1176
     39  O3S        1.8460   -1.2630   49.7780 O.2   303  IDS303     -0.3452
     40  C6         5.6670    2.9630   53.3670 C.2   303  IDS303      0.3367
     41  N          0.0420    3.9130   56.0330 N.3   304  SGN304     -0.1775
     42  C1         7.4940    1.8470   50.3880 C.3   302  SGN302      0.1795
     43  O2S       -6.6570    0.4630   57.3710 O.2   305  IDS305     -0.3452
     44  C5         8.4580    0.8740   52.3480 C.3   302  SGN302      0.1158
     45  O2S        2.6170   -0.3450   47.8730 O.3   303  IDS303     -0.2682
     46  O3         8.7420   -1.6230   49.6740 O.3   302  SGN302     -0.3874
     47  O4         8.9290   -1.4780   52.4170 O.3   302  SGN302     -0.3401
     48  O61       -2.6810    1.6120   51.8230 O.2   305  IDS305     -0.2480
     49  S          3.0370   -0.9580   49.0770 S.3   303  IDS303     -0.0004
     50  O3S      -11.1110    4.5710   49.4750 O.3   306  SGN306     -0.0534
     51  O3S       10.3950   -4.3500   56.6800 O.3   301  UAP301     -0.2682
     52  C3        -7.9070    2.8170   52.4190 C.3   306  SGN306      0.1055
     53  C1        10.1240   -2.0970   52.8860 C.3   301  UAP301      0.1918
     54  O4        -6.6310    2.6360   54.4380 O.3   306  SGN306     -0.3401
     55  O1         6.1510    1.5790   50.7860 O.3   302  SGN302     -0.3406
     56  C1         2.9610    1.1340   51.7220 C.3   303  IDS303      0.1915
     57  O6S       -6.4320    8.2290   55.1950 O.2   306  SGN306     -0.3452
     58  O5        -9.4990    4.7900   53.7320 O.3   306  SGN306     -0.3416
     59  C6        -8.0600    4.8220   55.6660 C.3   306  SGN306      0.1035
     60  O5S       -7.6410    7.4300   57.0500 O.3   306  SGN306     -0.2682
     61  O5         4.1160    1.3530   52.5410 O.3   303  IDS303     -0.3314
     62  C4         9.0680   -0.3130   51.6030 C.3   302  SGN302      0.1176
     63  C6         0.4260   -0.4480   52.5430 C.3   304  SGN304      0.1035
     64  C6        -3.1430    2.5970   52.4240 C.2   305  IDS305      0.3367
     65  O1        -1.6640    2.4530   54.6150 O.3   304  SGN304     -0.3406
     66  O2S        0.2060    5.5120   58.0220 O.3   304  SGN304     -0.0534
     67  O3S       -8.0050    2.3730   57.7610 O.3   305  IDS305     -0.2682
     68  O5S       12.0720    1.3960   55.1390 O.2   302  SGN302     -0.3452
     69  S2        -6.5890    7.1300   56.1100 S.3   306  SGN306     -0.0008
     70  O5S        1.0570   -3.4260   55.0390 O.3   304  SGN304     -0.2682
     71  C4         5.2690    2.6940   50.8940 C.3   303  IDS303      0.1267
     72  S         -6.7330    1.7270   58.0450 S.3   305  IDS305     -0.0004
     73  C1       -10.0590    4.1300   52.6040 C.3   306  SGN306      0.1762
     74  C4         9.5280   -4.6060   51.8100 C.3   301  UAP301      0.0393
     75  O6        -7.0620    5.7090   55.1650 O.3   306  SGN306     -0.2520
     76  O62       -2.9640    3.7980   52.0920 O.3   305  IDS305     -0.4788
     77  O1S       11.3510   -2.2320   56.2340 O.2   301  UAP301     -0.3452
     78  O3S        1.5080    3.5580   58.1850 O.3   304  SGN304     -0.0534
     79  O5         8.3690    2.0170   51.5050 O.3   302  SGN302     -0.3413
     80  O5        -0.2680    0.5930   54.6340 O.3   304  SGN304     -0.3413
     81  O3S        6.4640    2.5310   47.5080 O.3   302  SGN302     -0.0534
     82  C4        -2.9620    1.9320   54.8420 C.3   305  IDS305      0.1267
     83  O1S        5.8170    0.5770   46.3850 O.3   302  SGN302     -0.0534
     84  O62       12.2940   -3.7210   49.8900 O.3   301  UAP301     -0.4785
     85  C1        -0.6630    1.7620   55.3350 C.3   304  SGN304      0.1795
     86  O5        -4.5960    3.4980   54.0540 O.3   305  IDS305     -0.3314
     87  O3         3.2080    3.6170   50.0180 O.3   303  IDS303     -0.3863
     88  O6S       11.1370    3.2810   54.1460 O.3   302  SGN302     -0.2682
     89  C5         4.6820    2.6470   52.2980 C.3   303  IDS303      0.1863
     90  C3        -3.4660    2.5020   56.1550 C.3   305  IDS305      0.1174
     91  O61        6.3210    3.9930   53.2870 O.3   303  IDS303     -0.4788
     92  O3         2.1530    3.8740   54.2200 O.3   304  SGN304     -0.3874
     93  C5        10.4940   -3.8370   51.2650 C.3   301  UAP301      0.2131
     94  S1         0.2370    4.1030   57.7830 S.3   304  SGN304      0.0767
     95  O6         0.1900   -1.5850   53.3770 O.3   304  SGN304     -0.2520
     96  O5        10.9080   -2.6700   51.8490 O.3   301  UAP301     -0.3270
     97  O1S       -0.8160    3.4410   58.5020 O.3   304  SGN304     -0.0534
     98  C2         3.3230    1.2940   50.2450 C.3   303  IDS303      0.1644
     99  C5        -8.5940    3.9810   54.5190 C.3   306  SGN306      0.1158
    100  C3         4.0830    2.5450   49.9190 C.3   303  IDS303      0.1174
    101  O2S        8.0530    1.1870   46.5780 O.3   302  SGN302     -0.0534
    102  O3         7.6440   -3.9870   53.1160 O.3   301  UAP301     -0.3886
    103  C5        -3.9260    2.3020   53.6960 C.3   305  IDS305      0.1863
    104  S1         6.8050    1.1920   47.2060 S.3   302  SGN302      0.0767
    105  S2         1.5310   -2.2910   54.3070 S.3   304  SGN304     -0.0008
    106  H          9.0720    0.6450   54.3540 H     302  SGN302      0.0610
    107  H          9.1640    2.2690   53.7860 H     302  SGN302      0.0610
    108  H          8.9360    0.9390   49.1240 H     302  SGN302      0.0554
    109  H          0.3050    3.5420   53.4760 H     304  SGN304      0.0638
    110  H         -5.8270    4.1640   55.5740 H     305  IDS305      0.0939
    111  H          9.1410   -2.8340   54.6280 H     301  UAP301      0.0697
    112  H         -7.0760    2.2340   50.7310 H     306  SGN306      0.2100
    113  H        -10.2950    2.3640   51.0770 H     306  SGN306      0.1487
    114  H         -3.2610    2.1160   58.0480 H     305  IDS305      0.2100
    115  H          6.0690    0.4110   49.1970 H     302  SGN302      0.1487
    116  H          7.1990   -0.8610   50.7780 H     302  SGN302      0.0638
    117  H         -0.5880    1.3490   52.7500 H     304  SGN304      0.0648
    118  H         -5.2290    1.3190   55.8970 H     305  IDS305      0.0698
    119  H         -8.4340    4.5590   51.3080 H     306  SGN306      0.0554
    120  H          1.2900    2.2360   56.0170 H     304  SGN304      0.0554
    121  H          9.1060   -5.2260   53.6620 H     301  UAP301      0.0625
    122  H          2.1640    1.2330   53.9640 H     304  SGN304      0.0650
    123  H        -11.1900    2.5690   52.2040 H     306  SGN306      0.2125
    124  H         -6.8480    4.3950   53.3650 H     306  SGN306      0.0650
    125  H         -0.9540    3.9860   55.8270 H     304  SGN304      0.1487
    126  H          7.4860    2.7540   49.8210 H     302  SGN302      0.0927
    127  H          7.4820    0.5760   52.6710 H     302  SGN302      0.0648
    128  H          9.6220   -1.3550   49.3670 H     302  SGN302      0.2100
    129  H         -8.3350    1.8760   52.6950 H     306  SGN306      0.0638
    130  H         10.7040   -1.3300   53.3550 H     301  UAP301      0.0939
    131  H          2.6330    0.1290   51.8860 H     303  IDS303      0.0939
    132  H         -7.6320    4.1840   56.4100 H     306  SGN306      0.0610
    133  H         -8.8580    5.3850   56.1040 H     306  SGN306      0.0610
    134  H         10.0870   -0.1100   51.3460 H     302  SGN302      0.0650
    135  H          1.4420   -0.4640   52.2070 H     304  SGN304      0.0610
    136  H         -0.2420   -0.4900   51.7080 H     304  SGN304      0.0610
    137  H          5.8010    3.5980   50.6810 H     303  IDS303      0.0656
    138  H        -10.7120    4.8090   52.0970 H     306  SGN306      0.0925
    139  H          9.1680   -5.4180   51.2850 H     301  UAP301      0.0366
    140  H         -3.3480    4.4860   52.5990 H     305  IDS305      0.2951
    141  H         -2.9170    0.8640   54.8830 H     305  IDS305      0.0656
    142  H         12.4820   -2.8730   50.2410 H     301  UAP301      0.2951
    143  H         -1.0260    1.4680   56.2980 H     304  SGN304      0.0927
    144  H          3.6790    4.4390   49.8110 H     303  IDS303      0.2100
    145  H          3.9300    3.4070   52.3370 H     303  IDS303      0.0742
    146  H         -3.1850    3.5270   56.2770 H     305  IDS305      0.0649
    147  H          6.3230    4.4860   52.4900 H     303  IDS303      0.2951
    148  H          2.8240    3.4280   54.7600 H     304  SGN304      0.2100
    149  H          2.4000    1.3800   49.7110 H     303  IDS303      0.0698
    150  H         -9.1160    3.1220   54.8860 H     306  SGN306      0.0648
    151  H          4.4800    2.5070   48.9260 H     303  IDS303      0.0649
    152  H          7.5130   -3.1560   52.6330 H     301  UAP301      0.2099
    153  H         -4.6040    1.4900   53.5330 H     305  IDS305      0.0742
@<TRIPOS>BOND
     1     1    13    1
     2     2    44    1
     3     2    37    1
     4     2   106    1
     5     2   107    1
     6     3    21    2
     7     4    49    2
     8     5    42    1
     9     5    17    1
    10     5    15    1
    11     5   108    1
    12     6    29    1
    13     6    31    1
    14     6    92    1
    15     6   109    1
    16     7    23    1
    17     7    86    1
    18     7    54    1
    19     7   110    1
    20     8    56    1
    21     8    31    1
    22     9    53    1
    23     9    30    1
    24     9    26    1
    25     9   111    1
    26    10    52    1
    27    10   112    1
    28    11    93    1
    29    11    33    2
    30    11    84    1
    31    12    24    1
    32    12    13    1
    33    12   113    1
    34    13    35    1
    35    13    50    1
    36    14    90    1
    37    14   114    1
    38    15   104    1
    39    15   115    1
    40    16    23    1
    41    16    72    1
    42    17    62    1
    43    17    46    1
    44    17   116    1
    45    18    31    1
    46    18    63    1
    47    18    80    1
    48    18   117    1
    49    19    28    2
    50    20    40    2
    51    21    26    1
    52    21    77    2
    53    21    51    1
    54    22   105    2
    55    23    90    1
    56    23   118    1
    57    24    73    1
    58    24    52    1
    59    24   119    1
    60    25    69    2
    61    27    98    1
    62    27    49    1
    63    28    37    1
    64    28    68    2
    65    28    88    1
    66    29    85    1
    67    29    41    1
    68    29   120    1
    69    30    74    1
    70    30   102    1
    71    30   121    1
    72    31   122    1
    73    32    72    2
    74    34    73    1
    75    34   123    1
    76    36   105    2
    77    38    52    1
    78    38    99    1
    79    38    54    1
    80    38   124    1
    81    39    49    2
    82    40    89    1
    83    40    91    1
    84    41    94    1
    85    41   125    1
    86    42    55    1
    87    42    79    1
    88    42   126    1
    89    43    72    2
    90    44    62    1
    91    44    79    1
    92    44   127    1
    93    45    49    1
    94    46   128    1
    95    47    53    1
    96    47    62    1
    97    48    64    2
    98    52   129    1
    99    53    96    1
   100    53   130    1
   101    55    71    1
   102    56    98    1
   103    56    61    1
   104    56   131    1
   105    57    69    2
   106    58    73    1
   107    58    99    1
   108    59    99    1
   109    59    75    1
   110    59   132    1
   111    59   133    1
   112    60    69    1
   113    61    89    1
   114    62   134    1
   115    63    95    1
   116    63   135    1
   117    63   136    1
   118    64   103    1
   119    64    76    1
   120    65    85    1
   121    65    82    1
   122    66    94    1
   123    67    72    1
   124    69    75    1
   125    70   105    1
   126    71   100    1
   127    71    89    1
   128    71   137    1
   129    73   138    1
   130    74    93    1
   131    74   139    1
   132    76   140    1
   133    78    94    1
   134    80    85    1
   135    81   104    1
   136    82    90    1
   137    82   103    1
   138    82   141    1
   139    83   104    1
   140    84   142    1
   141    85   143    1
   142    86   103    1
   143    87   100    1
   144    87   144    1
   145    89   145    1
   146    90   146    1
   147    91   147    1
   148    92   148    1
   149    93    96    1
   150    94    97    1
   151    95   105    1
   152    98   100    1
   153    98   149    1
   154    99   150    1
   155   100   151    1
   156   101   104    1
   157   102   152    1
   158   103   153    1
