@<TRIPOS>MOLECULE
1C82_LIGAND_1_uncharged.pdb
 47 48 0 0 0
SMALL
GASTEIGER

@<TRIPOS>ATOM
      1  C4         8.0360   -8.8430   30.7650 C.3   902  NAG902      0.1116
      2  O5        10.2490   -9.9520   30.8330 O.3   902  NAG902     -0.3414
      3  O6        10.2910   -7.0580   31.6030 O.3   902  NAG902     -0.3924
      4  C1         9.6370  -11.3160   30.7680 C.3   902  NAG902      0.1776
      5  O7         7.0260  -12.5520   33.6840 O.2   902  NAG902     -0.2761
      6  O2         3.7100  -11.4500   32.4610 O.3   901  GCD901     -0.3827
      7  C7         6.9680  -13.1360   32.5670 C.2   902  NAG902      0.2104
      8  O3         6.0650  -10.2500   31.2670 O.3   902  NAG902     -0.3315
      9  O4         7.2480   -7.8390   30.0830 O.3   902  NAG902     -0.3865
     10  N2         7.5390  -12.6260   31.3570 N.am  902  NAG902     -0.3053
     11  C5         9.4220   -8.8940   30.1470 C.3   902  NAG902      0.1130
     12  C1         4.9390  -10.6330   30.5040 C.3   901  GCD901      0.2313
     13  C2         3.6690  -10.5670   31.2940 C.3   901  GCD901      0.1466
     14  C4         2.6250  -10.5430   28.8380 C.2   901  GCD901     -0.0042
     15  C6        10.1000   -7.5270   30.2410 C.3   902  NAG902      0.0730
     16  C3         7.3860  -10.2490   30.6730 C.3   902  NAG902      0.1140
     17  O5         4.8370   -9.6180   29.3910 O.2   901  GCD901     -0.4539
     18  C5         3.6770   -9.7940   28.4470 C.2   901  GCD901      0.2060
     19  O6B        4.4160   -8.1150   27.0460 O.2   901  GCD901     -0.2417
     20  C2         8.2450  -11.2820   31.4120 C.3   902  NAG902      0.1025
     21  O1        10.4520  -12.2820   31.4210 O.3   902  NAG902     -0.3654
     22  O3         1.3060  -10.9230   31.0090 O.3   901  GCD901     -0.3848
     23  O6A        3.2580   -9.9150   26.1050 O.3   901  GCD901     -0.4750
     24  C3         2.5320  -11.0070   30.3060 C.3   901  GCD901      0.1089
     25  C6         3.8740   -9.2800   27.0430 C.2   901  GCD901      0.3717
     26  C8         6.2370  -14.4480   32.3600 C.3   902  NAG902      0.0122
     27  H          8.0920   -8.5720   31.7990 H     902  NAG902      0.0647
     28  H         10.7240   -6.1900   31.5880 H     902  NAG902      0.2095
     29  H          9.5540  -11.6000   29.7400 H     902  NAG902      0.0928
     30  H          4.4180  -11.1630   33.0590 H     901  GCD901      0.2102
     31  H          7.1830   -8.0630   29.1420 H     902  NAG902      0.2100
     32  H          7.4760  -13.1310   30.5140 H     902  NAG902      0.1492
     33  H          9.3330   -9.1480   29.1110 H     902  NAG902      0.0647
     34  H          5.0610  -11.6410   30.1670 H     901  GCD901      0.1084
     35  H          3.5080   -9.5810   31.6770 H     901  GCD901      0.0685
     36  H          1.8900  -10.8030   28.1620 H     901  GCD901      0.0637
     37  H         11.0580   -7.5930   29.7700 H     902  NAG902      0.0584
     38  H          9.4530   -6.8250   29.7580 H     902  NAG902      0.0584
     39  H          7.3130  -10.5020   29.6360 H     902  NAG902      0.0644
     40  H          8.3740  -11.0260   32.4430 H     902  NAG902      0.0575
     41  H         10.5440  -12.0470   32.3580 H     902  NAG902      0.2125
     42  H          1.4280  -11.2550   31.9120 H     901  GCD901      0.2103
     43  H          2.9150  -10.7720   26.2660 H     901  GCD901      0.2955
     44  H          2.6620  -12.0320   30.0270 H     901  GCD901      0.0667
     45  H          5.8320  -14.7820   33.2920 H     902  NAG902      0.0322
     46  H          6.9200  -15.1810   31.9850 H     902  NAG902      0.0322
     47  H          5.4430  -14.3070   31.6570 H     902  NAG902      0.0322
@<TRIPOS>BOND
     1     1    16    1
     2     1    11    1
     3     1     9    1
     4     1    27    1
     5     2     4    1
     6     2    11    1
     7     3    15    1
     8     3    28    1
     9     4    20    1
    10     4    21    1
    11     4    29    1
    12     5     7    2
    13     6    13    1
    14     6    30    1
    15     7    26    1
    16     7    10   am
    17     8    12    1
    18     8    16    1
    19     9    31    1
    20    10    20    1
    21    10    32    1
    22    11    15    1
    23    11    33    1
    24    12    13    1
    25    12    17    1
    26    12    34    1
    27    13    24    1
    28    13    35    1
    29    14    24    1
    30    14    18    2
    31    14    36    1
    32    15    37    1
    33    15    38    1
    34    16    20    1
    35    16    39    1
    36    17    18    1
    37    18    25    1
    38    19    25    2
    39    20    40    1
    40    21    41    1
    41    22    24    1
    42    22    42    1
    43    23    25    1
    44    23    43    1
    45    24    44    1
    46    26    45    1
    47    26    46    1
    48    26    47    1
