@<TRIPOS>MOLECULE
1C82_LIGAND_2.pdb
 49 50 0 0 0
SMALL
GASTEIGER

@<TRIPOS>ATOM
      1  O3        17.2140  -19.1180   32.3950 O.3   903  GCD903     -0.3890
      2  O6B       14.7410  -13.9720   31.3060 O.2   903  GCD903     -0.2481
      3  O1        23.0860  -12.2600   33.5700 O.3   904  NAG904     -0.3654
      4  C4        18.8570  -12.1540   32.6260 C.3   904  NAG904      0.1116
      5  C5        15.8240  -15.9560   31.4610 C.3   903  GCD903      0.1603
      6  C4        15.8680  -17.2870   31.4720 C.3   903  GCD903      0.0127
      7  C8        22.4860  -14.9820   35.4080 C.3   904  NAG904      0.0122
      8  O2        19.6590  -17.6610   32.6450 O.3   903  GCD903     -0.3842
      9  O5        16.9790  -15.0080   31.6740 O.3   903  GCD903     -0.3341
     10  O6        18.4880   -9.6250   34.0530 O.3   904  NAG904     -0.3924
     11  O6A       13.3570  -15.8710   31.0460 O.3   903  GCD903     -0.4788
     12  N2        21.8840  -14.7190   32.9010 N.am  904  NAG904     -0.3053
     13  C2        21.0210  -13.4570   33.1470 C.3   904  NAG904      0.1024
     14  O4        17.6010  -12.1100   31.8640 O.3   904  NAG904     -0.3865
     15  C1        21.8390  -12.2320   32.7960 C.3   904  NAG904      0.1776
     16  O3        18.9210  -14.6030   32.6630 O.3   904  NAG904     -0.3408
     17  C6        18.9200   -9.6460   32.6300 C.3   904  NAG904      0.0730
     18  C2        18.3350  -17.0100   32.5030 C.3   903  GCD903      0.1317
     19  C6        14.4980  -15.1730   31.2080 C.2   903  GCD903      0.3341
     20  O7        23.2660  -16.5090   33.6960 O.2   904  NAG904     -0.2761
     21  C3        19.6880  -13.4370   32.2980 C.3   904  NAG904      0.1130
     22  O5        21.0030  -10.9840   33.0520 O.3   904  NAG904     -0.3414
     23  C5        19.6930  -10.9330   32.2770 C.3   904  NAG904      0.1130
     24  C1        18.3480  -15.6230   31.7810 C.3   903  GCD903      0.1888
     25  C7        22.5940  -15.4850   33.9550 C.2   904  NAG904      0.2104
     26  C3        17.2420  -17.8460   31.7190 C.3   903  GCD903      0.0887
     27 H          16.5609  -19.6957   31.9700 H     903  GCD903      0.2099
     28 H          23.5742  -13.0733   33.3672 H     904  NAG904      0.2125
     29 H          18.6105  -12.1675   33.6671 H     904  NAG904      0.0647
     30 H          16.2148  -16.9473   31.5578 H     903  GCD903      0.0715
     31 H          15.5239  -17.6439   30.5238 H     903  GCD903      0.0321
     32 H          15.2485  -17.6130   32.2812 H     903  GCD903      0.0321
     33 H          21.8767  -14.1029   35.4367 H     904  NAG904      0.0322
     34 H          23.4627  -14.7513   35.7791 H     904  NAG904      0.0322
     35 H          22.0437  -15.7426   36.0168 H     904  NAG904      0.0322
     36 H          20.2563  -17.0753   33.1360 H     903  GCD903      0.2101
     37 H          18.0072   -8.8019   34.2328 H     904  NAG904      0.2095
     38 H          13.3834  -16.8061   30.9924 H     903  GCD903      0.2951
     39 H          21.9681  -15.0378   31.9734 H     904  NAG904      0.1492
     40 H          20.7384  -13.4644   34.1790 H     904  NAG904      0.0575
     41 H          17.7991  -12.0971   30.9145 H     904  NAG904      0.2100
     42 H          22.1065  -12.2219   31.7600 H     904  NAG904      0.0928
     43 H          19.5533   -8.8027   32.4493 H     904  NAG904      0.0584
     44 H          18.0424   -9.6108   32.0188 H     904  NAG904      0.0584
     45 H          18.0808  -16.9137   33.5379 H     903  GCD903      0.0670
     46 H          19.9177  -13.4367   31.2530 H     904  NAG904      0.0644
     47 H          19.9002  -10.9307   31.2272 H     904  NAG904      0.0647
     48 H          18.8407  -15.8267   30.8533 H     903  GCD903      0.0938
     49 H          17.5529  -17.8674   30.6954 H     903  GCD903      0.0622
@<TRIPOS>BOND
     1     1    26    1
     2     2    19    2
     3     3    15    1
     4     4    21    1
     5     4    23    1
     6     4    14    1
     7     5     6    1
     8     5    19    1
     9     5     9    1
    10     6    26    1
    11     7    25    1
    12     8    18    1
    13     9    24    1
    14    10    17    1
    15    11    19    1
    16    12    13    1
    17    12    25   am
    18    13    15    1
    19    13    21    1
    20    15    22    1
    21    16    24    1
    22    16    21    1
    23    17    23    1
    24    18    24    1
    25    18    26    1
    26    20    25    2
    27    22    23    1
    28     1    27    1
    29     3    28    1
    30     4    29    1
    31     5    30    1
    32     6    31    1
    33     6    32    1
    34     7    33    1
    35     7    34    1
    36     7    35    1
    37     8    36    1
    38    10    37    1
    39    11    38    1
    40    12    39    1
    41    13    40    1
    42    14    41    1
    43    15    42    1
    44    17    43    1
    45    17    44    1
    46    18    45    1
    47    21    46    1
    48    23    47    1
    49    24    48    1
    50    26    49    1
