@<TRIPOS>MOLECULE
1C82_LIGAND_2_uncharged.pdb
 49 50 0 0 0
SMALL
GASTEIGER

@<TRIPOS>ATOM
      1  O3        17.2140  -19.1180   32.3950 O.3   903  GCD903     -0.3890
      2  O6B       14.7410  -13.9720   31.3060 O.2   903  GCD903     -0.2481
      3  O1        23.0860  -12.2600   33.5700 O.3   904  NAG904     -0.3654
      4  C4        18.8570  -12.1540   32.6260 C.3   904  NAG904      0.1116
      5  C5        15.8240  -15.9560   31.4610 C.3   903  GCD903      0.1603
      6  C4        15.8680  -17.2870   31.4720 C.3   903  GCD903      0.0127
      7  C8        22.4860  -14.9820   35.4080 C.3   904  NAG904      0.0122
      8  O2        19.6590  -17.6610   32.6450 O.3   903  GCD903     -0.3842
      9  O5        16.9790  -15.0080   31.6740 O.3   903  GCD903     -0.3341
     10  O6        18.4880   -9.6250   34.0530 O.3   904  NAG904     -0.3924
     11  O6A       13.3570  -15.8710   31.0460 O.3   903  GCD903     -0.4788
     12  N2        21.8840  -14.7190   32.9010 N.am  904  NAG904     -0.3053
     13  C2        21.0210  -13.4570   33.1470 C.3   904  NAG904      0.1024
     14  O4        17.6010  -12.1100   31.8640 O.3   904  NAG904     -0.3865
     15  C1        21.8390  -12.2320   32.7960 C.3   904  NAG904      0.1776
     16  O3        18.9210  -14.6030   32.6630 O.3   904  NAG904     -0.3408
     17  C6        18.9200   -9.6460   32.6300 C.3   904  NAG904      0.0730
     18  C2        18.3350  -17.0100   32.5030 C.3   903  GCD903      0.1317
     19  C6        14.4980  -15.1730   31.2080 C.2   903  GCD903      0.3341
     20  O7        23.2660  -16.5090   33.6960 O.2   904  NAG904     -0.2761
     21  C3        19.6880  -13.4370   32.2980 C.3   904  NAG904      0.1130
     22  O5        21.0030  -10.9840   33.0520 O.3   904  NAG904     -0.3414
     23  C5        19.6930  -10.9330   32.2770 C.3   904  NAG904      0.1130
     24  C1        18.3480  -15.6230   31.7810 C.3   903  GCD903      0.1888
     25  C7        22.5940  -15.4850   33.9550 C.2   904  NAG904      0.2104
     26  C3        17.2420  -17.8460   31.7190 C.3   903  GCD903      0.0887
     27  H         16.5610  -19.6960   31.9700 H     903  GCD903      0.2099
     28  H         23.5740  -13.0730   33.3670 H     904  NAG904      0.2125
     29  H         18.6100  -12.1680   33.6670 H     904  NAG904      0.0647
     30  H         16.2150  -16.9470   31.5580 H     903  GCD903      0.0715
     31  H         15.5240  -17.6440   30.5240 H     903  GCD903      0.0321
     32  H         15.2480  -17.6130   32.2810 H     903  GCD903      0.0321
     33  H         21.8770  -14.1030   35.4370 H     904  NAG904      0.0322
     34  H         23.4630  -14.7510   35.7790 H     904  NAG904      0.0322
     35  H         22.0440  -15.7430   36.0170 H     904  NAG904      0.0322
     36  H         20.2560  -17.0750   33.1360 H     903  GCD903      0.2101
     37  H         18.0070   -8.8020   34.2330 H     904  NAG904      0.2095
     38  H         13.3830  -16.8060   30.9920 H     903  GCD903      0.2951
     39  H         21.9680  -15.0380   31.9730 H     904  NAG904      0.1492
     40  H         20.7380  -13.4640   34.1790 H     904  NAG904      0.0575
     41  H         17.7990  -12.0970   30.9150 H     904  NAG904      0.2100
     42  H         22.1070  -12.2220   31.7600 H     904  NAG904      0.0928
     43  H         19.5530   -8.8030   32.4490 H     904  NAG904      0.0584
     44  H         18.0420   -9.6110   32.0190 H     904  NAG904      0.0584
     45  H         18.0810  -16.9140   33.5380 H     903  GCD903      0.0670
     46  H         19.9180  -13.4370   31.2530 H     904  NAG904      0.0644
     47  H         19.9000  -10.9310   31.2270 H     904  NAG904      0.0647
     48  H         18.8410  -15.8270   30.8530 H     903  GCD903      0.0938
     49  H         17.5530  -17.8670   30.6950 H     903  GCD903      0.0622
@<TRIPOS>BOND
     1     1    26    1
     2     1    27    1
     3     2    19    2
     4     3    15    1
     5     3    28    1
     6     4    21    1
     7     4    23    1
     8     4    14    1
     9     4    29    1
    10     5     6    1
    11     5    19    1
    12     5     9    1
    13     5    30    1
    14     6    26    1
    15     6    31    1
    16     6    32    1
    17     7    25    1
    18     7    33    1
    19     7    34    1
    20     7    35    1
    21     8    18    1
    22     8    36    1
    23     9    24    1
    24    10    17    1
    25    10    37    1
    26    11    19    1
    27    11    38    1
    28    12    13    1
    29    12    25   am
    30    12    39    1
    31    13    15    1
    32    13    21    1
    33    13    40    1
    34    14    41    1
    35    15    22    1
    36    15    42    1
    37    16    24    1
    38    16    21    1
    39    17    23    1
    40    17    43    1
    41    17    44    1
    42    18    24    1
    43    18    26    1
    44    18    45    1
    45    20    25    2
    46    21    46    1
    47    22    23    1
    48    23    47    1
    49    24    48    1
    50    26    49    1
