@<TRIPOS>MOLECULE
1C82_LIGAND_1.pdb
 47 48 0 0 0
SMALL
GASTEIGER

@<TRIPOS>ATOM
      1  C4         8.0360   -8.8430   30.7650 C.3   902  NAG902      0.1116
      2  O5        10.2490   -9.9520   30.8330 O.3   902  NAG902     -0.3414
      3  O6        10.2910   -7.0580   31.6030 O.3   902  NAG902     -0.3924
      4  C1         9.6370  -11.3160   30.7680 C.3   902  NAG902      0.1776
      5  O7         7.0260  -12.5520   33.6840 O.2   902  NAG902     -0.2761
      6  O2         3.7100  -11.4500   32.4610 O.3   901  GCD901     -0.3827
      7  C7         6.9680  -13.1360   32.5670 C.2   902  NAG902      0.2104
      8  O3         6.0650  -10.2500   31.2670 O.3   902  NAG902     -0.3315
      9  O4         7.2480   -7.8390   30.0830 O.3   902  NAG902     -0.3865
     10  N2         7.5390  -12.6260   31.3570 N.am  902  NAG902     -0.3053
     11  C5         9.4220   -8.8940   30.1470 C.3   902  NAG902      0.1130
     12  C1         4.9390  -10.6330   30.5040 C.3   901  GCD901      0.2313
     13  C2         3.6690  -10.5670   31.2940 C.3   901  GCD901      0.1466
     14  C4         2.6250  -10.5430   28.8380 C.2   901  GCD901     -0.0042
     15  C6        10.1000   -7.5270   30.2410 C.3   902  NAG902      0.0730
     16  C3         7.3860  -10.2490   30.6730 C.3   902  NAG902      0.1140
     17  O5         4.8370   -9.6180   29.3910 O.2   901  GCD901     -0.4539
     18  C5         3.6770   -9.7940   28.4470 C.2   901  GCD901      0.2060
     19  O6B        4.4160   -8.1150   27.0460 O.2   901  GCD901     -0.2417
     20  C2         8.2450  -11.2820   31.4120 C.3   902  NAG902      0.1025
     21  O1        10.4520  -12.2820   31.4210 O.3   902  NAG902     -0.3654
     22  O3         1.3060  -10.9230   31.0090 O.3   901  GCD901     -0.3848
     23  O6A        3.2580   -9.9150   26.1050 O.3   901  GCD901     -0.4750
     24  C3         2.5320  -11.0070   30.3060 C.3   901  GCD901      0.1089
     25  C6         3.8740   -9.2800   27.0430 C.2   901  GCD901      0.3717
     26  C8         6.2370  -14.4480   32.3600 C.3   902  NAG902      0.0122
     27 H           8.0918   -8.5719   31.7986 H     902  NAG902      0.0647
     28 H          10.7238   -6.1900   31.5884 H     902  NAG902      0.2095
     29 H           9.5539  -11.5999   29.7397 H     902  NAG902      0.0928
     30 H           4.4176  -11.1628   33.0591 H     901  GCD901      0.2102
     31 H           7.1830   -8.0635   29.1416 H     902  NAG902      0.2100
     32 H           7.4759  -13.1313   30.5144 H     902  NAG902      0.1492
     33 H           9.3333   -9.1476   29.1113 H     902  NAG902      0.0647
     34 H           5.0605  -11.6411   30.1666 H     901  GCD901      0.1084
     35 H           3.5077   -9.5809   31.6768 H     901  GCD901      0.0685
     36 H           1.8901  -10.8028   28.1617 H     901  GCD901      0.0637
     37 H          11.0583   -7.5929   29.7697 H     902  NAG902      0.0584
     38 H           9.4528   -6.8249   29.7582 H     902  NAG902      0.0584
     39 H           7.3129  -10.5016   29.6358 H     902  NAG902      0.0644
     40 H           8.3742  -11.0257   32.4428 H     902  NAG902      0.0575
     41 H          10.5438  -12.0475   32.3577 H     902  NAG902      0.2125
     42 H           1.4278  -11.2549   31.9123 H     901  GCD901      0.2103
     43 H           2.9152  -10.7720   26.2663 H     901  GCD901      0.2955
     44 H           2.6618  -12.0318   30.0270 H     901  GCD901      0.0667
     45 H           5.8321  -14.7817   33.2925 H     902  NAG902      0.0322
     46 H           6.9198  -15.1814   31.9848 H     902  NAG902      0.0322
     47 H           5.4432  -14.3069   31.6566 H     902  NAG902      0.0322
@<TRIPOS>BOND
     1     1    16    1
     2     1    11    1
     3     1     9    1
     4     2     4    1
     5     2    11    1
     6     3    15    1
     7     4    20    1
     8     4    21    1
     9     5     7    2
    10     6    13    1
    11     7    26    1
    12     7    10   am
    13     8    12    1
    14     8    16    1
    15    10    20    1
    16    11    15    1
    17    12    13    1
    18    12    17    1
    19    13    24    1
    20    14    24    1
    21    14    18    2
    22    16    20    1
    23    17    18    1
    24    18    25    1
    25    19    25    2
    26    22    24    1
    27    23    25    1
    28     1    27    1
    29     3    28    1
    30     4    29    1
    31     6    30    1
    32     9    31    1
    33    10    32    1
    34    11    33    1
    35    12    34    1
    36    13    35    1
    37    14    36    1
    38    15    37    1
    39    15    38    1
    40    16    39    1
    41    20    40    1
    42    21    41    1
    43    22    42    1
    44    23    43    1
    45    24    44    1
    46    26    45    1
    47    26    46    1
    48    26    47    1
