@<TRIPOS>MOLECULE
1DBO_LIGAND_1.pdb
 51 52 0 0 0
SMALL
GASTEIGER

@<TRIPOS>ATOM
      1  OSC       27.7000   26.1710    0.5110 O.2   514  ASG514     -0.1181
      2  C3        25.7240   24.8770   -3.6210 C.3   516  GC4516      0.1089
      3  C4        27.4660   23.3480    0.9620 C.3   514  ASG514      0.1459
      4  C1        26.4440   20.8170    1.8760 C.3   514  ASG514      0.1777
      5  O3        26.1910   23.1090   -1.0960 O.3   514  ASG514     -0.3314
      6  O6A       29.6950   26.5520   -2.4620 O.2   516  GC4516     -0.2417
      7  O2        26.2970   22.8610   -4.8380 O.3   516  GC4516     -0.3827
      8  C5        28.0150   22.5870    2.1780 C.3   514  ASG514      0.1156
      9  C5        28.2420   24.6680   -2.7510 C.2   516  GC4516      0.2060
     10  O7        23.3460   21.4680   -0.6850 O.2   514  ASG514     -0.2761
     11  OSB       26.3330   26.4050    2.3780 O.2   514  ASG514     -0.1181
     12  O3        24.9530   25.3360   -2.5090 O.3   516  GC4516     -0.3848
     13  O5        26.9550   21.8120    2.7770 O.3   514  ASG514     -0.3413
     14  O4        26.4940   24.3100    1.3770 O.3   514  ASG514     -0.2071
     15  C8        23.7470   19.4450   -1.8150 C.3   514  ASG514      0.0122
     16  C2        25.7730   23.3310   -3.6030 C.3   516  GC4516      0.1466
     17  C3        26.8270   22.3700   -0.0400 C.3   514  ASG514      0.1166
     18  C2        25.8000   21.4690    0.6500 C.3   514  ASG514      0.1026
     19  C1        26.6360   22.8320   -2.4310 C.3   516  GC4516      0.2313
     20  N         25.3330   20.4380   -0.2690 N.am  514  ASG514     -0.3053
     21  C7        24.1400   20.5240   -0.8690 C.2   514  ASG514      0.2104
     22  C4        27.0890   25.5310   -3.2740 C.2   516  GC4516     -0.0042
     23  O6B       30.4000   24.5990   -1.7510 O.3   516  GC4516     -0.4750
     24  O1        25.4950   20.0670    2.5510 O.3   514  ASG514     -0.3654
     25  C6        28.5540   23.4990    3.2620 C.3   514  ASG514      0.0731
     26  S         26.4730   25.7450    1.1220 S.O2  514  ASG514      0.2079
     27  C6        29.5480   25.3170   -2.3140 C.2   516  GC4516      0.3717
     28  O5        27.9850   23.2540   -2.6290 O.2   516  GC4516     -0.4539
     29  OSA       25.4220   26.0330    0.1930 O.3   514  ASG514     -0.2311
     30  O6        29.7540   24.1410    2.8560 O.3   514  ASG514     -0.3924
     31 H          25.3660   25.1249   -4.5984 H     516  GC4516      0.0667
     32 H          28.2804   23.8533    0.4862 H     514  ASG514      0.0675
     33 H          27.2489   20.1975    1.5394 H     514  ASG514      0.0928
     34 H          25.7440   23.1826   -5.5672 H     516  GC4516      0.2102
     35 H          28.8147   21.9786    1.8103 H     514  ASG514      0.0648
     36 H          25.3751   25.0513   -1.6834 H     516  GC4516      0.2103
     37 H          22.7748   19.6538   -2.2102 H     514  ASG514      0.0322
     38 H          23.7286   18.5077   -1.2992 H     514  ASG514      0.0322
     39 H          24.4549   19.3975   -2.6159 H     514  ASG514      0.0322
     40 H          24.7815   22.9506   -3.4719 H     516  GC4516      0.0685
     41 H          27.5989   21.7500   -0.4458 H     514  ASG514      0.0645
     42 H          24.9619   22.0605    0.9544 H     514  ASG514      0.0575
     43 H          26.5391   21.7671   -2.4708 H     516  GC4516      0.1084
     44 H          25.9086   19.6606   -0.4524 H     514  ASG514      0.1492
     45 H          27.2196   26.5474   -3.3957 H     516  GC4516      0.0637
     46 H          30.2510   23.6783   -1.6607 H     516  GC4516      0.2955
     47 H          24.7756   20.6465    2.8470 H     514  ASG514      0.2125
     48 H          28.7505   22.9179    4.1387 H     514  ASG514      0.0584
     49 H          27.8213   24.2532    3.4598 H     514  ASG514      0.0584
     50 H          25.3991   26.9865    0.0161 H     514  ASG514      0.2469
     51 H          30.4321   23.4723    2.6717 H     514  ASG514      0.2095
@<TRIPOS>BOND
     1     1    26    2
     2     2    16    1
     3     2    22    1
     4     2    12    1
     5     3    17    1
     6     3     8    1
     7     3    14    1
     8     4    18    1
     9     4    24    1
    10     4    13    1
    11     5    17    1
    12     5    19    1
    13     6    27    2
    14     7    16    1
    15     8    25    1
    16     8    13    1
    17     9    22    2
    18     9    28    1
    19     9    27    1
    20    10    21    2
    21    11    26    2
    22    14    26    1
    23    15    21    1
    24    16    19    1
    25    17    18    1
    26    18    20    1
    27    19    28    1
    28    20    21   am
    29    23    27    1
    30    25    30    1
    31    26    29    1
    32     2    31    1
    33     3    32    1
    34     4    33    1
    35     7    34    1
    36     8    35    1
    37    12    36    1
    38    15    37    1
    39    15    38    1
    40    15    39    1
    41    16    40    1
    42    17    41    1
    43    18    42    1
    44    19    43    1
    45    20    44    1
    46    22    45    1
    47    23    46    1
    48    24    47    1
    49    25    48    1
    50    25    49    1
    51    29    50    1
    52    30    51    1
