@<TRIPOS>MOLECULE
1DBO_LIGAND_1_uncharged.pdb
 50 51 0 0 0
SMALL
GASTEIGER

@<TRIPOS>ATOM
      1  OSC       27.7000   26.1710    0.5110 O.2   514  ASG514     -0.3452
      2  C3        25.7240   24.8770   -3.6210 C.3   516  GC4516      0.1089
      3  C4        27.4660   23.3480    0.9620 C.3   514  ASG514      0.1419
      4  C1        26.4440   20.8170    1.8760 C.3   514  ASG514      0.1777
      5  O3        26.1910   23.1090   -1.0960 O.3   514  ASG514     -0.3314
      6  O6A       29.6950   26.5520   -2.4620 O.2   516  GC4516     -0.2417
      7  O2        26.2970   22.8610   -4.8380 O.3   516  GC4516     -0.3827
      8  C5        28.0150   22.5870    2.1780 C.3   514  ASG514      0.1154
      9  C5        28.2420   24.6680   -2.7510 C.2   516  GC4516      0.2060
     10  O7        23.3460   21.4680   -0.6850 O.2   514  ASG514     -0.2761
     11  OSB       26.3330   26.4050    2.3780 O.2   514  ASG514     -0.3452
     12  O3        24.9530   25.3360   -2.5090 O.3   516  GC4516     -0.3848
     13  O5        26.9550   21.8120    2.7770 O.3   514  ASG514     -0.3413
     14  O4        26.4940   24.3100    1.3770 O.3   514  ASG514     -0.2460
     15  C8        23.7470   19.4450   -1.8150 C.3   514  ASG514      0.0122
     16  C2        25.7730   23.3310   -3.6030 C.3   516  GC4516      0.1466
     17  C3        26.8270   22.3700   -0.0400 C.3   514  ASG514      0.1165
     18  C2        25.8000   21.4690    0.6500 C.3   514  ASG514      0.1026
     19  C1        26.6360   22.8320   -2.4310 C.3   516  GC4516      0.2313
     20  N         25.3330   20.4380   -0.2690 N.am  514  ASG514     -0.3053
     21  C7        24.1400   20.5240   -0.8690 C.2   514  ASG514      0.2104
     22  C4        27.0890   25.5310   -3.2740 C.2   516  GC4516     -0.0042
     23  O6B       30.4000   24.5990   -1.7510 O.3   516  GC4516     -0.4750
     24  O1        25.4950   20.0670    2.5510 O.3   514  ASG514     -0.3654
     25  C6        28.5540   23.4990    3.2620 C.3   514  ASG514      0.0731
     26  S         26.4730   25.7450    1.1220 S.3   514  ASG514     -0.0004
     27  C6        29.5480   25.3170   -2.3140 C.2   516  GC4516      0.3717
     28  O5        27.9850   23.2540   -2.6290 O.2   516  GC4516     -0.4539
     29  OSA       25.4220   26.0330    0.1930 O.3   514  ASG514     -0.2682
     30  O6        29.7540   24.1410    2.8560 O.3   514  ASG514     -0.3924
     31  H         25.3660   25.1250   -4.5980 H     516  GC4516      0.0667
     32  H         28.2800   23.8530    0.4860 H     514  ASG514      0.0673
     33  H         27.2490   20.1980    1.5390 H     514  ASG514      0.0928
     34  H         25.7440   23.1830   -5.5670 H     516  GC4516      0.2102
     35  H         28.8150   21.9790    1.8100 H     514  ASG514      0.0648
     36  H         25.3750   25.0510   -1.6830 H     516  GC4516      0.2103
     37  H         22.7750   19.6540   -2.2100 H     514  ASG514      0.0322
     38  H         23.7290   18.5080   -1.2990 H     514  ASG514      0.0322
     39  H         24.4550   19.3980   -2.6160 H     514  ASG514      0.0322
     40  H         24.7820   22.9510   -3.4720 H     516  GC4516      0.0685
     41  H         27.5990   21.7500   -0.4460 H     514  ASG514      0.0645
     42  H         24.9620   22.0610    0.9540 H     514  ASG514      0.0575
     43  H         26.5390   21.7670   -2.4710 H     516  GC4516      0.1084
     44  H         25.9090   19.6610   -0.4520 H     514  ASG514      0.1492
     45  H         27.2200   26.5470   -3.3960 H     516  GC4516      0.0637
     46  H         30.2510   23.6780   -1.6610 H     516  GC4516      0.2955
     47  H         24.7760   20.6460    2.8470 H     514  ASG514      0.2125
     48  H         28.7500   22.9180    4.1390 H     514  ASG514      0.0584
     49  H         27.8210   24.2530    3.4600 H     514  ASG514      0.0584
     50  H         30.4320   23.4720    2.6720 H     514  ASG514      0.2095
@<TRIPOS>BOND
     1     1    26    2
     2     2    16    1
     3     2    22    1
     4     2    12    1
     5     2    31    1
     6     3    17    1
     7     3     8    1
     8     3    14    1
     9     3    32    1
    10     4    18    1
    11     4    24    1
    12     4    13    1
    13     4    33    1
    14     5    17    1
    15     5    19    1
    16     6    27    2
    17     7    16    1
    18     7    34    1
    19     8    25    1
    20     8    13    1
    21     8    35    1
    22     9    22    2
    23     9    28    1
    24     9    27    1
    25    10    21    2
    26    11    26    2
    27    12    36    1
    28    14    26    1
    29    15    21    1
    30    15    37    1
    31    15    38    1
    32    15    39    1
    33    16    19    1
    34    16    40    1
    35    17    18    1
    36    17    41    1
    37    18    20    1
    38    18    42    1
    39    19    28    1
    40    19    43    1
    41    20    21   am
    42    20    44    1
    43    22    45    1
    44    23    27    1
    45    23    46    1
    46    24    47    1
    47    25    30    1
    48    25    48    1
    49    25    49    1
    50    26    29    1
    51    30    50    1
