@<TRIPOS>MOLECULE
1E0O_LIGAND_1_uncharged.pdb
 257 266 0 0 0
SMALL
GASTEIGER

@<TRIPOS>ATOM
      1  O4        24.3820  125.6130    6.7630 O.3   205  IDS205     -0.3406
      2  O5        31.6590  129.5360    6.6500 O.3   204  SGN204     -0.3413
      3  O2S       28.4270  137.8420    0.6480 O.3   202  SGN202     -0.0534
      4  C3        24.4170  116.1990   12.0030 C.3   208  SGN208      0.1055
      5  O1S       28.9640  138.3060   -1.6580 O.3   202  SGN202     -0.0534
      6  C5        30.9480  133.0220   -1.8520 C.3   202  SGN202      0.1158
      7  C3        18.9610  105.7830   17.4540 C.3   211  IDS211      0.0912
      8  O2S       29.2460  117.0660   11.7910 O.3   208  SGN208     -0.0534
      9  O6        20.8680  106.2960   12.9780 O.3   210  SGN210     -0.2520
     10  O5S       26.7400  131.0370   -2.1370 O.2   202  SGN202     -0.3452
     11  O61       26.9560  124.7940    5.1430 O.2   205  IDS205     -0.2480
     12  C6        30.4900  131.6660   -2.4500 C.3   202  SGN202      0.1035
     13  S1        20.4540  126.6160    8.6060 S.3   206  SGN206      0.0767
     14  S         27.3110  118.9590    8.1100 S.3   207  IDS207     -0.0004
     15  O1S       32.3800  126.9150    0.1850 O.2   203  IDS203     -0.3452
     16  C4        19.3530  108.7440   14.0520 C.3   210  SGN210      0.1176
     17  O4        28.0990  128.7590    7.4790 O.3   204  SGN204     -0.3401
     18  O5        26.9940  126.6670    7.1320 O.3   205  IDS205     -0.3314
     19  C4        23.1110  116.1630   12.7950 C.3   208  SGN208      0.1176
     20  C2        31.8310  129.8370    1.1790 C.3   203  IDS203      0.1644
     21  O4S       21.5540  115.2960   15.7540 O.2   208  SGN208     -0.3452
     22  O5        20.4370  108.7460   11.7900 O.3   210  SGN210     -0.3413
     23  O61       29.0100  132.0910    4.5830 O.2   203  IDS203     -0.2480
     24  C6        26.3510  125.8360    4.8800 C.2   205  IDS205      0.3367
     25  C2        25.5520  116.6660   12.9260 C.3   208  SGN208      0.1081
     26  C3        29.6490  127.6350    5.8570 C.3   204  SGN204      0.1055
     27  C2        30.2800  135.5810   -0.6210 C.3   202  SGN202      0.1079
     28  C3        31.1510  134.5360    0.1530 C.3   202  SGN202      0.1055
     29  O4        25.0970  122.4180    9.1310 O.3   206  SGN206     -0.3401
     30  O4S       22.6620  105.2250   11.8100 O.2   210  SGN210     -0.3452
     31  C4        30.6970  133.1220   -0.3020 C.3   202  SGN202      0.1176
     32  S2        28.0120  130.5000   -2.6040 S.3   202  SGN202     -0.0008
     33  C6        25.0190  121.7730    6.1960 C.3   206  SGN206      0.1035
     34  N         22.0540  126.1640    8.4890 N.3   206  SGN206     -0.1775
     35  O3        19.7490  105.0010   18.3190 O.3   211  IDS211     -0.3889
     36  O3S       30.1800  139.3910    0.0890 O.3   202  SGN202     -0.0534
     37  C5        26.1060  126.9200    5.9860 C.3   205  IDS205      0.1863
     38  O5        23.9390  118.0370   14.1860 O.3   208  SGN208     -0.3413
     39  C4        32.0160  130.5090    3.7130 C.3   203  IDS203      0.1267
     40  C1        30.8070  130.9900    0.9810 C.3   203  IDS203      0.1915
     41  C4        17.6160  106.1110   18.1590 C.3   211  IDS211      0.0128
     42  O6S       28.0490  130.3460   -4.0480 O.3   202  SGN202     -0.2682
     43  C6        21.5370  117.7190   14.1640 C.3   208  SGN208      0.1035
     44  O61       14.8880  107.0110   17.8950 O.2   211  IDS211     -0.2481
     45  O2        25.6870  128.9940    9.5390 O.3   205  IDS205     -0.2435
     46  O1        31.7750  135.7970   -2.5920 O.3   202  SGN202     -0.3656
     47  C1        25.1340  121.0860    9.4840 C.3   207  IDS207      0.1915
     48  C1        23.1370  124.9780    6.5400 C.3   206  SGN206      0.1795
     49  O62       23.4220  121.8850   13.7950 O.2   207  IDS207     -0.2480
     50  O62       30.7540  132.9890    5.3110 O.3   203  IDS203     -0.4788
     51  O3S       18.7780  114.3860   13.8850 O.2   209  IDS209     -0.3452
     52  C4        25.6970  120.0800   12.2520 C.3   207  IDS207      0.1267
     53  O3        18.6370  113.1190   10.1060 O.3   209  IDS209     -0.3863
     54  O6S       20.2350  116.8410   17.0740 O.2   208  SGN208     -0.3452
     55  O1S       33.7010  126.0200    4.8300 O.3   204  SGN204     -0.0534
     56  S2        29.9910  130.3550   10.9060 S.3   204  SGN204     -0.0008
     57  O1S       27.8730  117.9910    9.0380 O.2   207  IDS207     -0.3452
     58  C2        26.5880  120.8470    9.9690 C.3   207  IDS207      0.1644
     59  O5S       20.4630  104.2530   11.8850 O.2   210  SGN210     -0.3452
     60  O3S       22.2520  106.0080   18.2730 O.2   211  IDS211     -0.3452
     61  O3S       25.7130  128.8550   11.9600 O.2   205  IDS205     -0.3452
     62  S1        32.4940  125.4340    4.2750 S.3   204  SGN204      0.0767
     63  C2        25.8290  128.5400    8.1920 C.3   205  IDS205      0.1644
     64  O61       22.3910  120.5650   12.5320 O.3   207  IDS207     -0.4788
     65  O3        17.4170  110.0680   14.4220 O.3   210  SGN210     -0.3874
     66  N         30.6170  136.9850   -0.2370 N.3   202  SGN202     -0.1775
     67  O6S       20.8530  106.2360   10.6000 O.3   210  SGN210     -0.2682
     68  C5        20.7130  108.6880   13.2370 C.3   210  SGN210      0.1158
     69  O2S       20.1570  126.6710   10.0470 O.3   206  SGN206     -0.0534
     70  C1        27.1790  127.7880    8.0120 C.3   205  IDS205      0.1915
     71  O1S       23.6640  128.3890   10.7680 O.2   205  IDS205     -0.3452
     72  O4        19.5720  108.7510   15.4660 O.3   210  SGN210     -0.3401
     73  O4S       28.3990  129.3050   -1.8850 O.2   202  SGN202     -0.3452
     74  S1        28.2890  116.9320   12.8820 S.3   208  SGN208      0.0767
     75  O1S       17.9490  116.6130   13.4210 O.2   209  IDS209     -0.3452
     76  O61       23.5730  110.9190   10.3040 O.2   209  IDS209     -0.2480
     77  O2S       15.6360  109.7730   11.3780 O.3   210  SGN210     -0.0534
     78  O5        17.7280  108.4250   16.9350 O.3   211  IDS211     -0.3340
     79  O4        22.0800  115.7470   11.9100 O.3   208  SGN208     -0.3401
     80  O5S       22.2320  120.0870    4.3950 O.2   206  SGN206     -0.3452
     81  O5        22.0890  113.4600   12.3350 O.3   209  IDS209     -0.3314
     82  O3        27.9910  119.6860   11.5050 O.3   207  IDS207     -0.3863
     83  O2S       16.8430  114.7140   12.4530 O.3   209  IDS209     -0.2682
     84  S         22.3670  106.4680   16.9080 S.3   211  IDS211     -0.0004
     85  N         26.8200  116.7360   12.1460 N.3   208  SGN208     -0.1775
     86  O2        19.0820  115.4160   11.6410 O.3   209  IDS209     -0.2435
     87  C5        31.0380  131.6770    3.3200 C.3   203  IDS203      0.1863
     88  O6        21.8580  117.6800   15.5200 O.3   208  SGN208     -0.2520
     89  O4        20.5440  111.0340   11.7140 O.3   209  IDS209     -0.3406
     90  O4S       24.5450  119.5820    3.9610 O.2   206  SGN206     -0.3452
     91  C1        25.1740  118.0830   13.4760 C.3   208  SGN208      0.1795
     92  C3        24.6250  127.6290    7.9070 C.3   205  IDS205      0.1174
     93  C6        23.4100  121.2100   12.7830 C.2   207  IDS207      0.3367
     94  C4        20.7340  112.1030   10.7900 C.3   209  IDS209      0.1267
     95  O3S       28.1840  118.1470   13.6670 O.3   208  SGN208     -0.0534
     96  O6S       23.6610  121.8030    3.5120 O.3   206  SGN206     -0.2682
     97  O5        23.5000  123.6840    6.0280 O.3   206  SGN206     -0.3413
     98  C2        19.7090  107.0310   17.0940 C.3   211  IDS211      0.1620
     99  C3        32.7560  129.9720    2.4450 C.3   203  IDS203      0.1174
    100  O5S       30.7080  129.3550   11.6890 O.2   204  SGN204     -0.3452
    101  O62       23.8470  111.4570   12.2980 O.3   209  IDS209     -0.4788
    102  O4        31.4770  132.1180    0.4080 O.3   202  SGN202     -0.3401
    103  S2        21.5380  116.5340   16.5120 S.3   208  SGN208     -0.0008
    104  S         18.0970  115.2600   12.9270 S.3   209  IDS209     -0.0004
    105  N         31.3060  126.5950    4.3300 N.3   204  SGN204     -0.1775
    106  N         17.6230  111.2110   11.8130 N.3   210  SGN210     -0.1775
    107  S1        16.1550  111.0940   11.0830 S.3   210  SGN210      0.0767
    108  S         25.1060  128.2000   10.8250 S.3   205  IDS205     -0.0004
    109  C5        24.6280  121.1490   11.8380 C.3   207  IDS207      0.1863
    110  C4        24.6430  126.9390    6.5220 C.3   205  IDS205      0.1267
    111  O2S       32.0000  124.3160    5.0490 O.3   204  SGN204     -0.0534
    112  O4        31.2600  129.4430    4.3020 O.3   203  IDS203     -0.3406
    113  O5S       22.6040  116.6130   17.4910 O.3   208  SGN208     -0.2682
    114  S2        21.2430  105.4560   11.7420 S.3   210  SGN210     -0.0008
    115  O1S       22.9250  105.4600   16.0190 O.2   211  IDS211     -0.3452
    116  O3        23.4320  128.3770    8.0410 O.3   205  IDS205     -0.3863
    117  S         31.0320  127.4410    0.2500 S.3   203  IDS203     -0.0004
    118  O3S       28.1010  119.1030    6.9060 O.3   207  IDS207     -0.2682
    119  C5        30.2850  129.7890    7.0130 C.3   204  SGN204      0.1158
    120  O1S       19.6400  125.6550    7.8800 O.3   206  SGN206     -0.0534
    121  C3        23.5800  124.2490    8.8780 C.3   206  SGN206      0.1055
    122  O62       25.9470  125.9820    3.7400 O.3   205  IDS205     -0.4788
    123  C3        19.6450  113.1560   11.1120 C.3   209  IDS209      0.1174
    124  C1        30.4810  135.4200   -2.1700 C.3   202  SGN202      0.1762
    125  O6        29.0760  131.6130   -2.2390 O.3   202  SGN202     -0.2520
    126  C4        24.0440  122.8900    8.3130 C.3   206  SGN206      0.1176
    127  C1        19.7280  109.9200   11.3990 C.3   210  SGN210      0.1795
    128  O2S       23.0480  107.7460   16.7840 O.3   211  IDS211     -0.2682
    129  O62       15.1990  108.9020   18.7510 O.3   211  IDS211     -0.4788
    130  C2        18.3520  110.0020   12.1940 C.3   210  SGN210      0.1081
    131  C3        18.6310  110.0160   13.7040 C.3   210  SGN210      0.1055
    132  O2S       25.4770  126.8020   10.7060 O.3   205  IDS205     -0.2682
    133  O3        33.8200  130.8640    2.1400 O.3   203  IDS203     -0.3863
    134  O2        31.0700  128.6410    1.2650 O.3   203  IDS203     -0.2435
    135  O3        29.0270  126.3990    5.9900 O.3   204  SGN204     -0.3874
    136  C1        21.3110  114.6580   12.2750 C.3   209  IDS209      0.1915
    137  O1S       16.3540  111.3230    9.6670 O.3   210  SGN210     -0.0534
    138  S2        23.5730  120.6010    4.3250 S.3   206  SGN206     -0.0008
    139  O5        24.1810  120.8140   10.5030 O.3   207  IDS207     -0.3314
    140  C6        30.2130  132.2880    4.4720 C.2   203  IDS203      0.3367
    141  C6        15.6720  107.8820   18.2670 C.2   211  IDS211      0.3341
    142  C6        23.2660  111.6300   11.2440 C.2   209  IDS209      0.3367
    143  O1S       28.5230  115.7820   13.7280 O.3   208  SGN208     -0.0534
    144  C1        18.8040  107.8250   16.1900 C.3   211  IDS211      0.1913
    145  C2        31.1290  127.3800    5.5850 C.3   204  SGN204      0.1081
    146  O3        30.9360  134.6830    1.5500 O.3   202  SGN202     -0.3874
    147  C3        26.6470  119.8010   11.0560 C.3   207  IDS207      0.1174
    148  C5        24.5700  123.0860    6.8510 C.3   206  SGN206      0.1158
    149  S1        29.4650  138.1990   -0.3040 S.3   202  SGN202      0.0767
    150  O3S       20.4110  127.9310    7.9810 O.3   206  SGN206     -0.0534
    151  O4        24.9810  118.9080   12.3970 O.3   207  IDS207     -0.3406
    152  O5        30.1960  134.0630   -2.5600 O.3   202  SGN202     -0.3416
    153  O6S       30.6010  131.6780   11.0000 O.3   204  SGN204     -0.2682
    154  C6        21.5550  107.4140   13.4790 C.3   210  SGN210      0.1035
    155  C2        20.1800  114.5710   11.2350 C.3   209  IDS209      0.1644
    156  O3S       15.3700  112.1400   11.7000 O.3   210  SGN210     -0.0534
    157  O2S       25.9200  118.6990    7.8430 O.2   207  IDS207     -0.3452
    158  O3S       32.6500  125.0980    2.8620 O.3   204  SGN204     -0.0534
    159  O4S       28.5600  130.3650   11.1770 O.2   204  SGN204     -0.3452
    160  C4        29.5160  128.4420    7.1990 C.3   204  SGN204      0.1176
    161  C6        30.3160  130.6850    8.2580 C.3   204  SGN204      0.1035
    162  C5        17.2050  107.6720   18.1440 C.3   211  IDS211      0.1603
    163  O5        30.1600  131.2580    2.2410 O.3   203  IDS203     -0.3314
    164  C2        22.4650  124.8250    7.9600 C.3   206  SGN206      0.1081
    165  O6        23.8960  121.0490    5.7870 O.3   206  SGN206     -0.2520
    166  O6        30.1860  129.8800    9.4090 O.3   204  SGN204     -0.2520
    167  O2        27.4110  120.3780    8.8820 O.3   207  IDS207     -0.2435
    168  O3        24.7100  114.8990   11.5130 O.3   208  SGN208     -0.3874
    169  O2        20.8920  106.6550   16.3910 O.3   211  IDS211     -0.2436
    170  O2S       30.0800  126.5040    0.8150 O.2   203  IDS203     -0.3452
    171  O3S       30.5910  127.9830   -1.0040 O.3   203  IDS203     -0.2682
    172  C5        22.8240  117.6090   13.3340 C.3   208  SGN208      0.1158
    173  C1        31.8260  128.7520    5.4340 C.3   204  SGN204      0.1795
    174  C5        22.1660  112.6990   11.1020 C.3   209  IDS209      0.1863
    175  O3        23.0750  124.0630   10.1930 O.3   206  SGN206     -0.3874
    176  H         24.3210  116.8750   11.1790 H     208  SGN208      0.0638
    177  H         32.0050  133.1320   -1.9800 H     202  SGN202      0.0648
    178  H         18.7500  105.2500   16.5500 H     211  IDS211      0.0622
    179  H         30.9740  130.8540   -1.9490 H     202  SGN202      0.0610
    180  H         30.7400  131.5850   -3.4870 H     202  SGN202      0.0610
    181  H         18.7870  107.8740   13.7930 H     210  SGN210      0.0650
    182  H         23.1670  115.4870   13.6220 H     208  SGN208      0.0650
    183  H         32.5110  129.8530    0.3530 H     203  IDS203      0.0698
    184  H         25.6880  115.9850   13.7400 H     208  SGN208      0.0554
    185  H         29.1990  128.1940    5.0630 H     204  SGN204      0.0638
    186  H         29.2600  135.3910   -0.3580 H     202  SGN202      0.0554
    187  H         32.1910  134.6810   -0.0510 H     202  SGN202      0.0638
    188  H         29.6620  132.9570   -0.0870 H     202  SGN202      0.0650
    189  H         25.5780  121.1950    6.9020 H     206  SGN206      0.0610
    190  H         25.6330  121.9900    5.3470 H     206  SGN206      0.0610
    191  H         22.4380  126.2280    9.4320 H     206  SGN206      0.1487
    192  H         19.9300  105.4990   19.1310 H     211  IDS211      0.2099
    193  H         26.3050  127.8640    5.5230 H     205  IDS205      0.0742
    194  H         32.7400  130.8780    4.4090 H     203  IDS203      0.0656
    195  H         30.0320  130.7240    0.2930 H     203  IDS203      0.0939
    196  H         17.6900  105.7960   19.1790 H     211  IDS211      0.0321
    197  H         16.8560  105.5950   17.6110 H     211  IDS211      0.0321
    198  H         20.8880  116.9020   13.9270 H     208  SGN208      0.0610
    199  H         21.0430  118.6410   13.9390 H     208  SGN208      0.0610
    200  H         31.9500  136.7120   -2.3210 H     202  SGN202      0.2125
    201  H         24.8820  120.4350    8.6730 H     207  IDS207      0.0939
    202  H         22.4720  125.4940    5.8800 H     206  SGN206      0.0927
    203  H         31.6740  133.1600    5.2560 H     203  IDS203      0.2951
    204  H         26.2430  120.4010   13.1140 H     207  IDS207      0.0656
    205  H         18.2940  112.2150   10.0260 H     209  IDS209      0.2100
    206  H         26.9430  121.7840   10.3450 H     207  IDS207      0.0698
    207  H         25.8450  129.3570    7.5010 H     205  IDS205      0.0698
    208  H         22.3500  120.0350   11.7600 H     207  IDS207      0.2951
    209  H         17.6040  110.0760   15.3740 H     210  SGN210      0.2100
    210  H         31.3810  137.2770   -0.8470 H     202  SGN202      0.1487
    211  H         21.2740  109.5290   13.5860 H     210  SGN210      0.0648
    212  H         27.5580  127.3880    8.9300 H     205  IDS205      0.0939
    213  H         28.0420  119.0160   12.2040 H     207  IDS207      0.2100
    214  H         26.7160  117.5190   11.5010 H     208  SGN208      0.1487
    215  H         31.6840  132.4690    3.0030 H     203  IDS203      0.0742
    216  H         25.9530  118.4240   14.1260 H     208  SGN208      0.0927
    217  H         24.6810  126.8390    8.6260 H     205  IDS205      0.0649
    218  H         20.6670  111.8040    9.7650 H     209  IDS209      0.0656
    219  H         19.9820  107.6050   17.9550 H     211  IDS211      0.0697
    220  H         33.1040  128.9870    2.6760 H     203  IDS203      0.0649
    221  H         23.6360  111.9860   13.0420 H     209  IDS209      0.2951
    222  H         30.4200  126.1270    4.1410 H     204  SGN204      0.1487
    223  H         18.2270  111.7300   11.1760 H     210  SGN210      0.1487
    224  H         25.0880  122.1140   11.8890 H     207  IDS207      0.0742
    225  H         23.9650  127.4280    5.8540 H     205  IDS205      0.0656
    226  H         23.4160  129.0820    7.3750 H     205  IDS205      0.2100
    227  H         29.7430  130.3010    6.2460 H     204  SGN204      0.0648
    228  H         24.4030  124.9320    8.9110 H     206  SGN206      0.0638
    229  H         25.4830  126.7610    3.5030 H     205  IDS205      0.2951
    230  H         19.2450  112.8960   12.0700 H     209  IDS209      0.0649
    231  H         29.7960  136.0840   -2.6540 H     202  SGN202      0.0925
    232  H         23.2340  122.1910    8.3020 H     206  SGN206      0.0650
    233  H         19.5090  109.9040   10.3520 H     210  SGN210      0.0927
    234  H         15.7660  109.5870   19.0460 H     211  IDS211      0.2951
    235  H         17.7550  109.1480   11.9510 H     210  SGN210      0.0554
    236  H         19.2190  110.8730   13.9590 H     210  SGN210      0.0638
    237  H         33.4590  131.7410    1.9380 H     203  IDS203      0.2100
    238  H         29.4440  125.9030    6.7120 H     204  SGN204      0.2100
    239  H         20.9100  114.7750   13.2600 H     209  IDS209      0.0939
    240  H         18.3320  107.1780   15.4800 H     211  IDS211      0.0939
    241  H         31.5530  126.8200    6.3920 H     204  SGN204      0.0554
    242  H         29.9950  134.5540    1.7480 H     202  SGN202      0.2100
    243  H         26.3050  118.8810   10.6300 H     207  IDS207      0.0649
    244  H         25.4250  123.7270    6.9070 H     206  SGN206      0.0648
    245  H         22.4960  107.5080   12.9780 H     210  SGN210      0.0610
    246  H         21.7200  107.2900   14.5290 H     210  SGN210      0.0610
    247  H         20.5860  114.8830   10.2950 H     209  IDS209      0.0698
    248  H         29.9090  127.8610    8.0070 H     204  SGN204      0.0650
    249  H         29.5070  131.3840    8.2160 H     204  SGN204      0.0610
    250  H         31.2420  131.2200    8.2950 H     204  SGN204      0.0610
    251  H         17.6800  108.0820   19.0110 H     211  IDS211      0.0715
    252  H         21.5950  124.2030    7.9160 H     206  SGN206      0.0554
    253  H         24.7980  114.2850   12.2580 H     208  SGN208      0.2100
    254  H         22.7080  118.2290   12.4700 H     208  SGN208      0.0648
    255  H         32.8740  128.6090    5.2730 H     204  SGN204      0.0927
    256  H         22.4390  113.3110   10.2680 H     209  IDS209      0.0742
    257  H         22.3290  123.4440   10.1680 H     206  SGN206      0.2100
@<TRIPOS>BOND
     1     1   110    1
     2     1    48    1
     3     2   173    1
     4     2   119    1
     5     3   149    1
     6     4    25    1
     7     4    19    1
     8     4   168    1
     9     4   176    1
    10     5   149    1
    11     6    31    1
    12     6    12    1
    13     6   152    1
    14     6   177    1
    15     7    98    1
    16     7    41    1
    17     7    35    1
    18     7   178    1
    19     8    74    1
    20     9   154    1
    21     9   114    1
    22    10    32    2
    23    11    24    2
    24    12   125    1
    25    12   179    1
    26    12   180    1
    27    13    34    1
    28    13   120    1
    29    13    69    1
    30    13   150    1
    31    14   167    1
    32    14    57    2
    33    14   157    2
    34    14   118    1
    35    15   117    2
    36    16   131    1
    37    16    68    1
    38    16    72    1
    39    16   181    1
    40    17   160    1
    41    17    70    1
    42    18    70    1
    43    18    37    1
    44    19   172    1
    45    19    79    1
    46    19   182    1
    47    20    40    1
    48    20    99    1
    49    20   134    1
    50    20   183    1
    51    21   103    2
    52    22   127    1
    53    22    68    1
    54    23   140    2
    55    24    37    1
    56    24   122    1
    57    25    91    1
    58    25    85    1
    59    25   184    1
    60    26   145    1
    61    26   160    1
    62    26   135    1
    63    26   185    1
    64    27   124    1
    65    27    28    1
    66    27    66    1
    67    27   186    1
    68    28    31    1
    69    28   146    1
    70    28   187    1
    71    29   126    1
    72    29    47    1
    73    30   114    2
    74    31   102    1
    75    31   188    1
    76    32   125    1
    77    32    73    2
    78    32    42    1
    79    33   148    1
    80    33   165    1
    81    33   189    1
    82    33   190    1
    83    34   164    1
    84    34   191    1
    85    35   192    1
    86    36   149    1
    87    37   110    1
    88    37   193    1
    89    38    91    1
    90    38   172    1
    91    39    99    1
    92    39    87    1
    93    39   112    1
    94    39   194    1
    95    40   102    1
    96    40   163    1
    97    40   195    1
    98    41   162    1
    99    41   196    1
   100    41   197    1
   101    43   172    1
   102    43    88    1
   103    43   198    1
   104    43   199    1
   105    44   141    2
   106    45    63    1
   107    45   108    1
   108    46   124    1
   109    46   200    1
   110    47    58    1
   111    47   139    1
   112    47   201    1
   113    48   164    1
   114    48    97    1
   115    48   202    1
   116    49    93    2
   117    50   140    1
   118    50   203    1
   119    51   104    2
   120    52   147    1
   121    52   109    1
   122    52   151    1
   123    52   204    1
   124    53   123    1
   125    53   205    1
   126    54   103    2
   127    55    62    1
   128    56   166    1
   129    56   159    2
   130    56   100    2
   131    56   153    1
   132    58   147    1
   133    58   167    1
   134    58   206    1
   135    59   114    2
   136    60    84    2
   137    61   108    2
   138    62   105    1
   139    62   111    1
   140    62   158    1
   141    63    70    1
   142    63    92    1
   143    63   207    1
   144    64    93    1
   145    64   208    1
   146    65   131    1
   147    65   209    1
   148    66   149    1
   149    66   210    1
   150    67   114    1
   151    68   154    1
   152    68   211    1
   153    70   212    1
   154    71   108    2
   155    72   144    1
   156    74    85    1
   157    74   143    1
   158    74    95    1
   159    75   104    2
   160    76   142    2
   161    77   107    1
   162    78   144    1
   163    78   162    1
   164    79   136    1
   165    80   138    2
   166    81   136    1
   167    81   174    1
   168    82   147    1
   169    82   213    1
   170    83   104    1
   171    84   169    1
   172    84   115    2
   173    84   128    1
   174    85   214    1
   175    86   155    1
   176    86   104    1
   177    87   140    1
   178    87   163    1
   179    87   215    1
   180    88   103    1
   181    89    94    1
   182    89   127    1
   183    90   138    2
   184    91   151    1
   185    91   216    1
   186    92   110    1
   187    92   116    1
   188    92   217    1
   189    93   109    1
   190    94   123    1
   191    94   174    1
   192    94   218    1
   193    96   138    1
   194    97   148    1
   195    98   144    1
   196    98   169    1
   197    98   219    1
   198    99   133    1
   199    99   220    1
   200   101   142    1
   201   101   221    1
   202   103   113    1
   203   105   145    1
   204   105   222    1
   205   106   130    1
   206   106   107    1
   207   106   223    1
   208   107   137    1
   209   107   156    1
   210   108   132    1
   211   109   139    1
   212   109   224    1
   213   110   225    1
   214   112   173    1
   215   116   226    1
   216   117   134    1
   217   117   170    2
   218   117   171    1
   219   119   160    1
   220   119   161    1
   221   119   227    1
   222   121   164    1
   223   121   126    1
   224   121   175    1
   225   121   228    1
   226   122   229    1
   227   123   155    1
   228   123   230    1
   229   124   152    1
   230   124   231    1
   231   126   148    1
   232   126   232    1
   233   127   130    1
   234   127   233    1
   235   129   141    1
   236   129   234    1
   237   130   131    1
   238   130   235    1
   239   131   236    1
   240   133   237    1
   241   135   238    1
   242   136   155    1
   243   136   239    1
   244   138   165    1
   245   141   162    1
   246   142   174    1
   247   144   240    1
   248   145   173    1
   249   145   241    1
   250   146   242    1
   251   147   243    1
   252   148   244    1
   253   154   245    1
   254   154   246    1
   255   155   247    1
   256   160   248    1
   257   161   166    1
   258   161   249    1
   259   161   250    1
   260   162   251    1
   261   164   252    1
   262   168   253    1
   263   172   254    1
   264   173   255    1
   265   174   256    1
   266   175   257    1
