@<TRIPOS>MOLECULE
1E0O_LIGAND_1.pdb
 282 291 0 0 0
SMALL
GASTEIGER

@<TRIPOS>ATOM
      1  O4        24.3820  125.6130    6.7630 O.3   205  IDS205     -0.3406
      2  O5        31.6590  129.5360    6.6500 O.3   204  SGN204     -0.3413
      3  O2S       28.4270  137.8420    0.6480 O.3   202  SGN202     -0.2626
      4  C3        24.4170  116.1990   12.0030 C.3   208  SGN208      0.1055
      5  O1S       28.9640  138.3060   -1.6580 O.3   202  SGN202     -0.2626
      6  C5        30.9480  133.0220   -1.8520 C.3   202  SGN202      0.1159
      7  C3        18.9610  105.7830   17.4540 C.3   211  IDS211      0.0914
      8  O2S       29.2460  117.0660   11.7910 O.3   208  SGN208     -0.2626
      9  O6        20.8680  106.2960   12.9780 O.3   210  SGN210     -0.2131
     10  O5S       26.7400  131.0370   -2.1370 O.2   202  SGN202     -0.1181
     11  O61       26.9560  124.7940    5.1430 O.2   205  IDS205     -0.2480
     12  C6        30.4900  131.6660   -2.4500 C.3   202  SGN202      0.1076
     13  S1        20.4540  126.6160    8.6060 S.3   206  SGN206     -0.0198
     14  S         27.3110  118.9590    8.1100 S.O2  207  IDS207      0.2080
     15  O1S       32.3800  126.9150    0.1850 O.2   203  IDS203     -0.1181
     16  C4        19.3530  108.7440   14.0520 C.3   210  SGN210      0.1176
     17  O4        28.0990  128.7590    7.4790 O.3   204  SGN204     -0.3401
     18  O5        26.9940  126.6670    7.1320 O.3   205  IDS205     -0.3314
     19  C4        23.1110  116.1630   12.7950 C.3   208  SGN208      0.1176
     20  C2        31.8310  129.8370    1.1790 C.3   203  IDS203      0.1684
     21  O4S       21.5540  115.2960   15.7540 O.2   208  SGN208     -0.1181
     22  O5        20.4370  108.7460   11.7900 O.3   210  SGN210     -0.3413
     23  O61       29.0100  132.0910    4.5830 O.2   203  IDS203     -0.2480
     24  C6        26.3510  125.8360    4.8800 C.2   205  IDS205      0.3367
     25  C2        25.5520  116.6660   12.9260 C.3   208  SGN208      0.1078
     26  C3        29.6490  127.6350    5.8570 C.3   204  SGN204      0.1055
     27  C2        30.2800  135.5810   -0.6210 C.3   202  SGN202      0.1076
     28  C3        31.1510  134.5360    0.1530 C.3   202  SGN202      0.1055
     29  O4        25.0970  122.4180    9.1310 O.3   206  SGN206     -0.3401
     30  O4S       22.6620  105.2250   11.8100 O.2   210  SGN210     -0.1181
     31  C4        30.6970  133.1220   -0.3020 C.3   202  SGN202      0.1176
     32  S2        28.0120  130.5000   -2.6040 S.O2  202  SGN202      0.2076
     33  C6        25.0190  121.7730    6.1960 C.3   206  SGN206      0.1076
     34  N         22.0540  126.1640    8.4890 N.3   206  SGN206     -0.1845
     35  O3        19.7490  105.0010   18.3190 O.3   211  IDS211     -0.3889
     36  O3S       30.1800  139.3910    0.0890 O.3   202  SGN202     -0.2626
     37  C5        26.1060  126.9200    5.9860 C.3   205  IDS205      0.1863
     38  O5        23.9390  118.0370   14.1860 O.3   208  SGN208     -0.3413
     39  C4        32.0160  130.5090    3.7130 C.3   203  IDS203      0.1267
     40  C1        30.8070  130.9900    0.9810 C.3   203  IDS203      0.1916
     41  C4        17.6160  106.1110   18.1590 C.3   211  IDS211      0.0128
     42  O6S       28.0490  130.3460   -4.0480 O.3   202  SGN202     -0.2311
     43  C6        21.5370  117.7190   14.1640 C.3   208  SGN208      0.1076
     44  O61       14.8880  107.0110   17.8950 O.2   211  IDS211     -0.2481
     45  O2        25.6870  128.9940    9.5390 O.3   205  IDS205     -0.2047
     46  O1        31.7750  135.7970   -2.5920 O.3   202  SGN202     -0.3656
     47  C1        25.1340  121.0860    9.4840 C.3   207  IDS207      0.1916
     48  C1        23.1370  124.9780    6.5400 C.3   206  SGN206      0.1795
     49  O62       23.4220  121.8850   13.7950 O.2   207  IDS207     -0.2480
     50  O62       30.7540  132.9890    5.3110 O.3   203  IDS203     -0.4788
     51  O3S       18.7780  114.3860   13.8850 O.2   209  IDS209     -0.1181
     52  C4        25.6970  120.0800   12.2520 C.3   207  IDS207      0.1267
     53  O3        18.6370  113.1190   10.1060 O.3   209  IDS209     -0.3863
     54  O6S       20.2350  116.8410   17.0740 O.2   208  SGN208     -0.1181
     55  O1S       33.7010  126.0200    4.8300 O.3   204  SGN204     -0.2626
     56  S2        29.9910  130.3550   10.9060 S.O2  204  SGN204      0.2076
     57  O1S       27.8730  117.9910    9.0380 O.2   207  IDS207     -0.1181
     58  C2        26.5880  120.8470    9.9690 C.3   207  IDS207      0.1684
     59  O5S       20.4630  104.2530   11.8850 O.2   210  SGN210     -0.1181
     60  O3S       22.2520  106.0080   18.2730 O.2   211  IDS211     -0.1181
     61  O3S       25.7130  128.8550   11.9600 O.2   205  IDS205     -0.1181
     62  S1        32.4940  125.4340    4.2750 S.3   204  SGN204     -0.0198
     63  C2        25.8290  128.5400    8.1920 C.3   205  IDS205      0.1684
     64  O61       22.3910  120.5650   12.5320 O.3   207  IDS207     -0.4788
     65  O3        17.4170  110.0680   14.4220 O.3   210  SGN210     -0.3874
     66  N         30.6170  136.9850   -0.2370 N.3   202  SGN202     -0.1845
     67  O6S       20.8530  106.2360   10.6000 O.3   210  SGN210     -0.2311
     68  C5        20.7130  108.6880   13.2370 C.3   210  SGN210      0.1159
     69  O2S       20.1570  126.6710   10.0470 O.3   206  SGN206     -0.2626
     70  C1        27.1790  127.7880    8.0120 C.3   205  IDS205      0.1916
     71  O1S       23.6640  128.3890   10.7680 O.2   205  IDS205     -0.1181
     72  O4        19.5720  108.7510   15.4660 O.3   210  SGN210     -0.3401
     73  O4S       28.3990  129.3050   -1.8850 O.2   202  SGN202     -0.1181
     74  S1        28.2890  116.9320   12.8820 S.3   208  SGN208     -0.0198
     75  O1S       17.9490  116.6130   13.4210 O.2   209  IDS209     -0.1181
     76  O61       23.5730  110.9190   10.3040 O.2   209  IDS209     -0.2480
     77  O2S       15.6360  109.7730   11.3780 O.3   210  SGN210     -0.2626
     78  O5        17.7280  108.4250   16.9350 O.3   211  IDS211     -0.3340
     79  O4        22.0800  115.7470   11.9100 O.3   208  SGN208     -0.3401
     80  O5S       22.2320  120.0870    4.3950 O.2   206  SGN206     -0.1181
     81  O5        22.0890  113.4600   12.3350 O.3   209  IDS209     -0.3314
     82  O3        27.9910  119.6860   11.5050 O.3   207  IDS207     -0.3863
     83  O2S       16.8430  114.7140   12.4530 O.3   209  IDS209     -0.2311
     84  S         22.3670  106.4680   16.9080 S.O2  211  IDS211      0.2080
     85  N         26.8200  116.7360   12.1460 N.3   208  SGN208     -0.1845
     86  O2        19.0820  115.4160   11.6410 O.3   209  IDS209     -0.2047
     87  C5        31.0380  131.6770    3.3200 C.3   203  IDS203      0.1863
     88  O6        21.8580  117.6800   15.5200 O.3   208  SGN208     -0.2131
     89  O4        20.5440  111.0340   11.7140 O.3   209  IDS209     -0.3406
     90  O4S       24.5450  119.5820    3.9610 O.2   206  SGN206     -0.1181
     91  C1        25.1740  118.0830   13.4760 C.3   208  SGN208      0.1795
     92  C3        24.6250  127.6290    7.9070 C.3   205  IDS205      0.1176
     93  C6        23.4100  121.2100   12.7830 C.2   207  IDS207      0.3367
     94  C4        20.7340  112.1030   10.7900 C.3   209  IDS209      0.1267
     95  O3S       28.1840  118.1470   13.6670 O.3   208  SGN208     -0.2626
     96  O6S       23.6610  121.8030    3.5120 O.3   206  SGN206     -0.2311
     97  O5        23.5000  123.6840    6.0280 O.3   206  SGN206     -0.3413
     98  C2        19.7090  107.0310   17.0940 C.3   211  IDS211      0.1660
     99  C3        32.7560  129.9720    2.4450 C.3   203  IDS203      0.1176
    100  O5S       30.7080  129.3550   11.6890 O.2   204  SGN204     -0.1181
    101  O62       23.8470  111.4570   12.2980 O.3   209  IDS209     -0.4788
    102  O4        31.4770  132.1180    0.4080 O.3   202  SGN202     -0.3401
    103  S2        21.5380  116.5340   16.5120 S.O2  208  SGN208      0.2076
    104  S         18.0970  115.2600   12.9270 S.O2  209  IDS209      0.2080
    105  N         31.3060  126.5950    4.3300 N.3   204  SGN204     -0.1845
    106  N         17.6230  111.2110   11.8130 N.3   210  SGN210     -0.1845
    107  S1        16.1550  111.0940   11.0830 S.3   210  SGN210     -0.0198
    108  S         25.1060  128.2000   10.8250 S.O2  205  IDS205      0.2080
    109  C5        24.6280  121.1490   11.8380 C.3   207  IDS207      0.1863
    110  C4        24.6430  126.9390    6.5220 C.3   205  IDS205      0.1267
    111  O2S       32.0000  124.3160    5.0490 O.3   204  SGN204     -0.2626
    112  O4        31.2600  129.4430    4.3020 O.3   203  IDS203     -0.3406
    113  O5S       22.6040  116.6130   17.4910 O.3   208  SGN208     -0.2311
    114  S2        21.2430  105.4560   11.7420 S.O2  210  SGN210      0.2076
    115  O1S       22.9250  105.4600   16.0190 O.2   211  IDS211     -0.1181
    116  O3        23.4320  128.3770    8.0410 O.3   205  IDS205     -0.3863
    117  S         31.0320  127.4410    0.2500 S.O2  203  IDS203      0.2080
    118  O3S       28.1010  119.1030    6.9060 O.3   207  IDS207     -0.2311
    119  C5        30.2850  129.7890    7.0130 C.3   204  SGN204      0.1159
    120  O1S       19.6400  125.6550    7.8800 O.3   206  SGN206     -0.2626
    121  C3        23.5800  124.2490    8.8780 C.3   206  SGN206      0.1055
    122  O62       25.9470  125.9820    3.7400 O.3   205  IDS205     -0.4788
    123  C3        19.6450  113.1560   11.1120 C.3   209  IDS209      0.1176
    124  C1        30.4810  135.4200   -2.1700 C.3   202  SGN202      0.1762
    125  O6        29.0760  131.6130   -2.2390 O.3   202  SGN202     -0.2131
    126  C4        24.0440  122.8900    8.3130 C.3   206  SGN206      0.1176
    127  C1        19.7280  109.9200   11.3990 C.3   210  SGN210      0.1795
    128  O2S       23.0480  107.7460   16.7840 O.3   211  IDS211     -0.2311
    129  O62       15.1990  108.9020   18.7510 O.3   211  IDS211     -0.4788
    130  C2        18.3520  110.0020   12.1940 C.3   210  SGN210      0.1078
    131  C3        18.6310  110.0160   13.7040 C.3   210  SGN210      0.1055
    132  O2S       25.4770  126.8020   10.7060 O.3   205  IDS205     -0.2311
    133  O3        33.8200  130.8640    2.1400 O.3   203  IDS203     -0.3863
    134  O2        31.0700  128.6410    1.2650 O.3   203  IDS203     -0.2047
    135  O3        29.0270  126.3990    5.9900 O.3   204  SGN204     -0.3874
    136  C1        21.3110  114.6580   12.2750 C.3   209  IDS209      0.1916
    137  O1S       16.3540  111.3230    9.6670 O.3   210  SGN210     -0.2626
    138  S2        23.5730  120.6010    4.3250 S.O2  206  SGN206      0.2076
    139  O5        24.1810  120.8140   10.5030 O.3   207  IDS207     -0.3314
    140  C6        30.2130  132.2880    4.4720 C.2   203  IDS203      0.3367
    141  C6        15.6720  107.8820   18.2670 C.2   211  IDS211      0.3341
    142  C6        23.2660  111.6300   11.2440 C.2   209  IDS209      0.3367
    143  O1S       28.5230  115.7820   13.7280 O.3   208  SGN208     -0.2626
    144  C1        18.8040  107.8250   16.1900 C.3   211  IDS211      0.1914
    145  C2        31.1290  127.3800    5.5850 C.3   204  SGN204      0.1078
    146  O3        30.9360  134.6830    1.5500 O.3   202  SGN202     -0.3874
    147  C3        26.6470  119.8010   11.0560 C.3   207  IDS207      0.1176
    148  C5        24.5700  123.0860    6.8510 C.3   206  SGN206      0.1159
    149  S1        29.4650  138.1990   -0.3040 S.3   202  SGN202     -0.0198
    150  O3S       20.4110  127.9310    7.9810 O.3   206  SGN206     -0.2626
    151  O4        24.9810  118.9080   12.3970 O.3   207  IDS207     -0.3406
    152  O5        30.1960  134.0630   -2.5600 O.3   202  SGN202     -0.3416
    153  O6S       30.6010  131.6780   11.0000 O.3   204  SGN204     -0.2311
    154  C6        21.5550  107.4140   13.4790 C.3   210  SGN210      0.1076
    155  C2        20.1800  114.5710   11.2350 C.3   209  IDS209      0.1684
    156  O3S       15.3700  112.1400   11.7000 O.3   210  SGN210     -0.2626
    157  O2S       25.9200  118.6990    7.8430 O.2   207  IDS207     -0.1181
    158  O3S       32.6500  125.0980    2.8620 O.3   204  SGN204     -0.2626
    159  O4S       28.5600  130.3650   11.1770 O.2   204  SGN204     -0.1181
    160  C4        29.5160  128.4420    7.1990 C.3   204  SGN204      0.1176
    161  C6        30.3160  130.6850    8.2580 C.3   204  SGN204      0.1076
    162  C5        17.2050  107.6720   18.1440 C.3   211  IDS211      0.1603
    163  O5        30.1600  131.2580    2.2410 O.3   203  IDS203     -0.3314
    164  C2        22.4650  124.8250    7.9600 C.3   206  SGN206      0.1078
    165  O6        23.8960  121.0490    5.7870 O.3   206  SGN206     -0.2131
    166  O6        30.1860  129.8800    9.4090 O.3   204  SGN204     -0.2131
    167  O2        27.4110  120.3780    8.8820 O.3   207  IDS207     -0.2047
    168  O3        24.7100  114.8990   11.5130 O.3   208  SGN208     -0.3874
    169  O2        20.8920  106.6550   16.3910 O.3   211  IDS211     -0.2048
    170  O2S       30.0800  126.5040    0.8150 O.2   203  IDS203     -0.1181
    171  O3S       30.5910  127.9830   -1.0040 O.3   203  IDS203     -0.2311
    172  C5        22.8240  117.6090   13.3340 C.3   208  SGN208      0.1159
    173  C1        31.8260  128.7520    5.4340 C.3   204  SGN204      0.1795
    174  C5        22.1660  112.6990   11.1020 C.3   209  IDS209      0.1863
    175  O3        23.0750  124.0630   10.1930 O.3   206  SGN206     -0.3874
    176 H          27.7352  138.5219    0.6421 H     202  SGN202      0.2439
    177 H          24.3206  116.8748   11.1790 H     208  SGN208      0.0638
    178 H          28.2963  139.0083   -1.7011 H     202  SGN202      0.2439
    179 H          32.0047  133.1320   -1.9796 H     202  SGN202      0.0648
    180 H          18.7502  105.2504   16.5502 H     211  IDS211      0.0622
    181 H          29.2863  116.2350   11.2924 H     208  SGN208      0.2439
    182 H          30.9736  130.8538   -1.9486 H     202  SGN202      0.0611
    183 H          30.7398  131.5851   -3.4873 H     202  SGN202      0.0611
    184 H          18.7873  107.8736   13.7926 H     210  SGN210      0.0650
    185 H          23.1666  115.4868   13.6224 H     208  SGN208      0.0650
    186 H          32.5106  129.8535    0.3527 H     203  IDS203      0.0699
    187 H          25.6884  115.9846   13.7397 H     208  SGN208      0.0554
    188 H          29.1987  128.1935    5.0632 H     204  SGN204      0.0638
    189 H          29.2604  135.3911   -0.3578 H     202  SGN202      0.0554
    190 H          32.1914  134.6809   -0.0505 H     202  SGN202      0.0638
    191 H          29.6618  132.9571   -0.0875 H     202  SGN202      0.0650
    192 H          25.5783  121.1952    6.9019 H     206  SGN206      0.0611
    193 H          25.6327  121.9896    5.3466 H     206  SGN206      0.0611
    194 H          22.4383  126.2285    9.4317 H     206  SGN206      0.1485
    195 H          19.9295  105.4995   19.1313 H     211  IDS211      0.2099
    196 H          29.5757  140.1496    0.0759 H     202  SGN202      0.2439
    197 H          26.3048  127.8640    5.5232 H     205  IDS205      0.0742
    198 H          32.7397  130.8783    4.4093 H     203  IDS203      0.0656
    199 H          30.0316  130.7243    0.2932 H     203  IDS203      0.0939
    200 H          17.6898  105.7963   19.1790 H     211  IDS211      0.0321
    201 H          16.8557  105.5948   17.6110 H     211  IDS211      0.0321
    202 H          27.7803  131.1776   -4.4688 H     202  SGN202      0.2469
    203 H          20.8879  116.9021   13.9268 H     208  SGN208      0.0611
    204 H          21.0434  118.6413   13.9391 H     208  SGN208      0.0611
    205 H          31.9496  136.7120   -2.3214 H     202  SGN202      0.2125
    206 H          24.8823  120.4350    8.6730 H     207  IDS207      0.0939
    207 H          22.4718  125.4941    5.8796 H     206  SGN206      0.0927
    208 H          31.6736  133.1602    5.2561 H     203  IDS203      0.2951
    209 H          26.2431  120.4013   13.1143 H     207  IDS207      0.0656
    210 H          18.2935  112.2154   10.0256 H     209  IDS209      0.2100
    211 H          33.5581  126.2285    5.7665 H     204  SGN204      0.2439
    212 H          26.9430  121.7839   10.3447 H     207  IDS207      0.0699
    213 H          25.8454  129.3567    7.5009 H     205  IDS205      0.0699
    214 H          22.3501  120.0353   11.7602 H     207  IDS207      0.2951
    215 H          17.6043  110.0764   15.3737 H     210  SGN210      0.2100
    216 H          31.3811  137.2767   -0.8465 H     202  SGN202      0.1485
    217 H          21.4053  107.0317   10.5480 H     210  SGN210      0.2469
    218 H          21.2742  109.5293   13.5865 H     210  SGN210      0.0648
    219 H          20.1968  125.7763   10.4197 H     206  SGN206      0.2439
    220 H          27.5575  127.3882    8.9295 H     205  IDS205      0.0939
    221 H          16.1902  109.1041   10.9463 H     210  SGN210      0.2439
    222 H          28.0420  119.0160   12.2045 H     207  IDS207      0.2100
    223 H          16.2330  114.6093   13.1999 H     209  IDS209      0.2469
    224 H          26.7163  117.5195   11.5012 H     208  SGN208      0.1485
    225 H          31.6837  132.4693    3.0034 H     203  IDS203      0.0742
    226 H          25.9525  118.4241   14.1260 H     208  SGN208      0.0927
    227 H          24.6814  126.8386    8.6260 H     205  IDS205      0.0649
    228 H          20.6672  111.8043    9.7647 H     209  IDS209      0.0656
    229 H          28.0276  118.9007   13.0768 H     208  SGN208      0.2439
    230 H          23.4683  121.5827    2.5872 H     206  SGN206      0.2469
    231 H          19.9823  107.6049   17.9547 H     211  IDS211      0.0698
    232 H          33.1039  128.9869    2.6763 H     203  IDS203      0.0649
    233 H          23.6358  111.9863   13.0418 H     209  IDS209      0.2951
    234 H          30.4197  126.1267    4.1414 H     204  SGN204      0.1485
    235 H          18.2274  111.7301   11.1760 H     210  SGN210      0.1485
    236 H          25.0877  122.1139   11.8886 H     207  IDS207      0.0742
    237 H          23.9653  127.4283    5.8540 H     205  IDS205      0.0656
    238 H          31.9110  124.5801    5.9781 H     204  SGN204      0.2439
    239 H          22.4807  115.9213   18.1598 H     208  SGN208      0.2469
    240 H          23.4160  129.0821    7.3751 H     205  IDS205      0.2100
    241 H          29.0252  119.2759    7.1444 H     207  IDS207      0.2469
    242 H          29.7429  130.3014    6.2458 H     204  SGN204      0.0648
    243 H          19.6894  124.7918    8.3198 H     206  SGN206      0.2439
    244 H          24.4027  124.9324    8.9111 H     206  SGN206      0.0638
    245 H          25.4831  126.7610    3.5035 H     205  IDS205      0.2951
    246 H          19.2448  112.8958   12.0696 H     209  IDS209      0.0649
    247 H          29.7959  136.0845   -2.6538 H     202  SGN202      0.0925
    248 H          23.2336  122.1914    8.3017 H     206  SGN206      0.0650
    249 H          19.5088  109.9044   10.3518 H     210  SGN210      0.0927
    250 H          22.6463  108.3867   17.3915 H     211  IDS211      0.2469
    251 H          15.7660  109.5874   19.0455 H     211  IDS211      0.2951
    252 H          17.7553  109.1477   11.9510 H     210  SGN210      0.0554
    253 H          19.2191  110.8729   13.9586 H     210  SGN210      0.0638
    254 H          26.4425  126.7190   10.7485 H     205  IDS205      0.2469
    255 H          33.4586  131.7411    1.9376 H     203  IDS203      0.2100
    256 H          29.4440  125.9032    6.7119 H     204  SGN204      0.2100
    257 H          20.9099  114.7749   13.2601 H     209  IDS209      0.0939
    258 H          16.8833  110.6008    9.2939 H     210  SGN210      0.2439
    259 H          28.5890  114.9849   13.1792 H     208  SGN208      0.2439
    260 H          18.3318  107.1782   15.4803 H     211  IDS211      0.0939
    261 H          31.5534  126.8203    6.3922 H     204  SGN204      0.0554
    262 H          29.9952  134.5538    1.7477 H     202  SGN202      0.2100
    263 H          26.3048  118.8808   10.6305 H     207  IDS207      0.0649
    264 H          25.4249  123.7270    6.9075 H     206  SGN206      0.0648
    265 H          20.6120  127.8465    7.0358 H     206  SGN206      0.2439
    266 H          30.0921  132.3074   10.4654 H     204  SGN204      0.2469
    267 H          22.4960  107.5081   12.9784 H     210  SGN210      0.0611
    268 H          21.7201  107.2899   14.5289 H     210  SGN210      0.0611
    269 H          20.5856  114.8827   10.2952 H     209  IDS209      0.0699
    270 H          15.2611  111.9481   12.6446 H     210  SGN210      0.2439
    271 H          32.9819  125.8718    2.3804 H     204  SGN204      0.2439
    272 H          29.9092  127.8613    8.0071 H     204  SGN204      0.0650
    273 H          29.5071  131.3842    8.2165 H     204  SGN204      0.0611
    274 H          31.2422  131.2196    8.2946 H     204  SGN204      0.0611
    275 H          17.6801  108.0824   19.0105 H     211  IDS211      0.0715
    276 H          21.5953  124.2032    7.9159 H     206  SGN206      0.0554
    277 H          24.7979  114.2847   12.2585 H     208  SGN208      0.2100
    278 H          31.2577  128.6016   -1.3412 H     203  IDS203      0.2469
    279 H          22.7077  118.2288   12.4696 H     208  SGN208      0.0648
    280 H          32.8741  128.6095    5.2726 H     204  SGN204      0.0927
    281 H          22.4394  113.3108   10.2678 H     209  IDS209      0.0742
    282 H          22.3286  123.4439   10.1682 H     206  SGN206      0.2100
@<TRIPOS>BOND
     1     1   110    1
     2     1    48    1
     3     2   173    1
     4     2   119    1
     5     3   149    1
     6     4    25    1
     7     4    19    1
     8     4   168    1
     9     5   149    1
    10     6    31    1
    11     6    12    1
    12     6   152    1
    13     7    98    1
    14     7    41    1
    15     7    35    1
    16     8    74    1
    17     9   154    1
    18     9   114    1
    19    10    32    2
    20    11    24    2
    21    12   125    1
    22    13    34    1
    23    13   120    1
    24    13    69    1
    25    13   150    1
    26    14   167    1
    27    14    57    2
    28    14   157    2
    29    14   118    1
    30    15   117    2
    31    16   131    1
    32    16    68    1
    33    16    72    1
    34    17   160    1
    35    17    70    1
    36    18    70    1
    37    18    37    1
    38    19   172    1
    39    19    79    1
    40    20    40    1
    41    20    99    1
    42    20   134    1
    43    21   103    2
    44    22   127    1
    45    22    68    1
    46    23   140    2
    47    24    37    1
    48    24   122    1
    49    25    91    1
    50    25    85    1
    51    26   145    1
    52    26   160    1
    53    26   135    1
    54    27   124    1
    55    27    28    1
    56    27    66    1
    57    28    31    1
    58    28   146    1
    59    29   126    1
    60    29    47    1
    61    30   114    2
    62    31   102    1
    63    32   125    1
    64    32    73    2
    65    32    42    1
    66    33   148    1
    67    33   165    1
    68    34   164    1
    69    36   149    1
    70    37   110    1
    71    38    91    1
    72    38   172    1
    73    39    99    1
    74    39    87    1
    75    39   112    1
    76    40   102    1
    77    40   163    1
    78    41   162    1
    79    43   172    1
    80    43    88    1
    81    44   141    2
    82    45    63    1
    83    45   108    1
    84    46   124    1
    85    47    58    1
    86    47   139    1
    87    48   164    1
    88    48    97    1
    89    49    93    2
    90    50   140    1
    91    51   104    2
    92    52   147    1
    93    52   109    1
    94    52   151    1
    95    53   123    1
    96    54   103    2
    97    55    62    1
    98    56   166    1
    99    56   159    2
   100    56   100    2
   101    56   153    1
   102    58   147    1
   103    58   167    1
   104    59   114    2
   105    60    84    2
   106    61   108    2
   107    62   105    1
   108    62   111    1
   109    62   158    1
   110    63    70    1
   111    63    92    1
   112    64    93    1
   113    65   131    1
   114    66   149    1
   115    67   114    1
   116    68   154    1
   117    71   108    2
   118    72   144    1
   119    74    85    1
   120    74   143    1
   121    74    95    1
   122    75   104    2
   123    76   142    2
   124    77   107    1
   125    78   144    1
   126    78   162    1
   127    79   136    1
   128    80   138    2
   129    81   136    1
   130    81   174    1
   131    82   147    1
   132    83   104    1
   133    84   169    1
   134    84   115    2
   135    84   128    1
   136    86   155    1
   137    86   104    1
   138    87   140    1
   139    87   163    1
   140    88   103    1
   141    89    94    1
   142    89   127    1
   143    90   138    2
   144    91   151    1
   145    92   110    1
   146    92   116    1
   147    93   109    1
   148    94   123    1
   149    94   174    1
   150    96   138    1
   151    97   148    1
   152    98   144    1
   153    98   169    1
   154    99   133    1
   155   101   142    1
   156   103   113    1
   157   105   145    1
   158   106   130    1
   159   106   107    1
   160   107   137    1
   161   107   156    1
   162   108   132    1
   163   109   139    1
   164   112   173    1
   165   117   134    1
   166   117   170    2
   167   117   171    1
   168   119   160    1
   169   119   161    1
   170   121   164    1
   171   121   126    1
   172   121   175    1
   173   123   155    1
   174   124   152    1
   175   126   148    1
   176   127   130    1
   177   129   141    1
   178   130   131    1
   179   136   155    1
   180   138   165    1
   181   141   162    1
   182   142   174    1
   183   145   173    1
   184   161   166    1
   185     3   176    1
   186     4   177    1
   187     5   178    1
   188     6   179    1
   189     7   180    1
   190     8   181    1
   191    12   182    1
   192    12   183    1
   193    16   184    1
   194    19   185    1
   195    20   186    1
   196    25   187    1
   197    26   188    1
   198    27   189    1
   199    28   190    1
   200    31   191    1
   201    33   192    1
   202    33   193    1
   203    34   194    1
   204    35   195    1
   205    36   196    1
   206    37   197    1
   207    39   198    1
   208    40   199    1
   209    41   200    1
   210    41   201    1
   211    42   202    1
   212    43   203    1
   213    43   204    1
   214    46   205    1
   215    47   206    1
   216    48   207    1
   217    50   208    1
   218    52   209    1
   219    53   210    1
   220    55   211    1
   221    58   212    1
   222    63   213    1
   223    64   214    1
   224    65   215    1
   225    66   216    1
   226    67   217    1
   227    68   218    1
   228    69   219    1
   229    70   220    1
   230    77   221    1
   231    82   222    1
   232    83   223    1
   233    85   224    1
   234    87   225    1
   235    91   226    1
   236    92   227    1
   237    94   228    1
   238    95   229    1
   239    96   230    1
   240    98   231    1
   241    99   232    1
   242   101   233    1
   243   105   234    1
   244   106   235    1
   245   109   236    1
   246   110   237    1
   247   111   238    1
   248   113   239    1
   249   116   240    1
   250   118   241    1
   251   119   242    1
   252   120   243    1
   253   121   244    1
   254   122   245    1
   255   123   246    1
   256   124   247    1
   257   126   248    1
   258   127   249    1
   259   128   250    1
   260   129   251    1
   261   130   252    1
   262   131   253    1
   263   132   254    1
   264   133   255    1
   265   135   256    1
   266   136   257    1
   267   137   258    1
   268   143   259    1
   269   144   260    1
   270   145   261    1
   271   146   262    1
   272   147   263    1
   273   148   264    1
   274   150   265    1
   275   153   266    1
   276   154   267    1
   277   154   268    1
   278   155   269    1
   279   156   270    1
   280   158   271    1
   281   160   272    1
   282   161   273    1
   283   161   274    1
   284   162   275    1
   285   164   276    1
   286   168   277    1
   287   171   278    1
   288   172   279    1
   289   173   280    1
   290   174   281    1
   291   175   282    1
