@<TRIPOS>MOLECULE
1FCV_LIGAND_1.pdb
 95 98 0 0 0
SMALL
GASTEIGER

@<TRIPOS>ATOM
      1  O2         8.9470   33.2800  -12.3330 O.3   401  GCU401     -0.3841
      2  C4        -0.3860   27.3980   -5.1260 C.3   404  NAG404      0.1226
      3  O6A        2.3790   28.1500   -9.7260 O.2   403  GCU403     -0.2480
      4  O5         2.1400   29.2820   -7.2740 O.3   403  GCU403     -0.3315
      5  C2         6.8170   30.5040  -10.4620 C.3   402  NAG402      0.1026
      6  O6        -3.8360   25.9720   -4.7660 O.3   404  NAG404     -0.3913
      7  C5         7.5580   27.7570   -9.9130 C.3   402  NAG402      0.1130
      8  O5        -2.3580   28.1270   -3.9880 O.3   404  NAG404     -0.4550
      9  O4         0.0400   26.7790   -6.3450 O.3   404  NAG404     -0.3854
     10  O7        -2.4360   31.0010   -4.5970 O.2   404  NAG404     -0.2761
     11  O2         3.8300   29.8140   -4.1520 O.3   403  GCU403     -0.3841
     12  O3         1.5950   28.7980   -5.0300 O.3   404  NAG404     -0.3403
     13  C3         4.6540   30.0630   -6.3860 C.3   403  GCU403      0.1149
     14  O6B        2.5230   30.2300  -10.4860 O.3   403  GCU403     -0.4788
     15  C2         9.3230   32.3570  -13.3430 C.3   401  GCU401      0.1342
     16  N2        -0.3780   30.8350   -3.6140 N.am  404  NAG404     -0.3005
     17  C8        -1.2490   33.0280   -4.1690 C.3   404  NAG404      0.0122
     18  O6A        8.7860   28.5580  -16.1300 O.2   401  GCU401     -0.2480
     19  C3         7.6040   29.7200  -11.4980 C.3   402  NAG402      0.1130
     20  C1         2.2790   29.4790   -5.8950 C.3   403  GCU403      0.1890
     21  C4         8.4260   28.6230  -10.8060 C.3   402  NAG402      0.1116
     22  O5         8.9240   30.2350  -14.2960 O.3   401  GCU401     -0.3315
     23  O6         9.0610   27.2290   -8.0140 O.3   402  NAG402     -0.3924
     24  O3         6.0350   29.9010   -6.0290 O.3   403  GCU403     -0.3864
     25  O4         9.0280   32.6720  -17.0100 O.3   401  GCU401     -0.3860
     26  C6         2.5970   29.3760   -9.5800 C.2   403  GCU403      0.3367
     27  C1        -1.3940   28.5860   -3.0920 C.2   404  NAG404      0.3307
     28  O4         5.3380   30.2780   -8.6870 O.3   403  GCU403     -0.3403
     29  O3        10.3080   34.0450  -14.7900 O.3   401  GCU401     -0.3864
     30  C7         6.0440   32.8490  -10.7750 C.2   402  NAG402      0.2104
     31  C6         8.8300   29.7230  -16.5790 C.2   401  GCU401      0.3367
     32  C5        -1.9130   27.5340   -5.2040 C.3   404  NAG404      0.1541
     33  C2         3.7360   29.2890   -5.4770 C.3   403  GCU403      0.1342
     34  C5         2.9810   29.8680   -8.2310 C.3   403  GCU403      0.1863
     35  C3         9.2770   33.0500  -14.6830 C.3   401  GCU401      0.1145
     36  O5         6.8750   28.6010   -8.9830 O.3   402  NAG402     -0.3412
     37  N2         5.9100   31.5150  -11.0280 N.am  402  NAG402     -0.3053
     38  O7         6.9060   33.3110  -10.0560 O.2   402  NAG402     -0.2761
     39  C7        -1.4230   31.5370   -4.1550 C.2   404  NAG404      0.2106
     40  O4         9.0040   27.7810  -11.8070 O.3   402  NAG402     -0.3865
     41  C4         4.4400   29.6320   -7.8270 C.3   403  GCU403      0.1266
     42  C8         5.0620   33.8030  -11.4330 C.3   402  NAG402      0.0122
     43  C6        -2.6280   26.2370   -5.4960 C.3   404  NAG404      0.0838
     44  C2        -0.2210   29.3690   -3.5840 C.3   404  NAG404      0.1495
     45  C4         9.4940   32.0500  -15.8080 C.3   401  GCU401      0.1201
     46  C1         8.4330   31.1160  -13.2840 C.3   401  GCU401      0.1890
     47  O6B        8.9740   30.2290  -17.7120 O.3   401  GCU401     -0.4788
     48  C3         0.2110   28.7900   -4.9240 C.3   404  NAG404      0.1197
     49  O4        -1.9490   28.8540   -1.8910 O.2   405  GCU405     -0.2486
     50  C5         8.6470   30.7900  -15.5690 C.3   401  GCU401      0.1859
     51  C1         6.0060   29.5500   -9.5800 C.3   402  NAG402      0.1808
     52  O3         8.5690   30.5410  -12.1110 O.3   402  NAG402     -0.3408
     53  C6         8.3090   26.7210   -9.1130 C.3   402  NAG402      0.0730
     54 H           8.9741   32.8417  -11.4681 H     401  GCU401      0.2101
     55 H          -0.0593   26.7936   -4.3057 H     404  NAG404      0.0658
     56 H           7.5503   31.0318   -9.8887 H     402  NAG402      0.0575
     57 H          -4.1984   25.1152   -5.0407 H     404  NAG404      0.2096
     58 H           6.8997   27.2292  -10.5710 H     402  NAG402      0.0647
     59 H          -0.2494   27.3165   -7.0989 H     404  NAG404      0.2101
     60 H           4.7405   29.7201   -3.8308 H     403  GCU403      0.2101
     61 H           4.4131   31.0997   -6.2764 H     403  GCU403      0.0648
     62 H           2.7014   31.1302  -10.2970 H     403  GCU403      0.2951
     63 H          10.3254   32.0171  -13.1861 H     401  GCU401      0.0671
     64 H           0.3429   31.3643   -3.2026 H     404  NAG404      0.1496
     65 H          -2.1120   33.4837   -4.6077 H     404  NAG404      0.0322
     66 H          -0.3818   33.2805   -4.7427 H     404  NAG404      0.0322
     67 H          -1.1292   33.3825   -3.1666 H     404  NAG404      0.0322
     68 H           6.8960   29.3321  -12.2003 H     402  NAG402      0.0644
     69 H           1.8708   30.4666   -5.8400 H     403  GCU403      0.0938
     70 H           9.1753   29.0974  -10.2074 H     402  NAG402      0.0647
     71 H           9.5072   26.4963   -7.5613 H     402  NAG402      0.2095
     72 H           6.2848   28.9680   -6.1184 H     403  GCU403      0.2100
     73 H           9.5486   33.4720  -17.1829 H     401  GCU401      0.2100
     74 H          10.1985   34.7012  -14.0841 H     401  GCU401      0.2100
     75 H          -2.1578   28.1575   -6.0384 H     404  NAG404      0.0784
     76 H           4.0211   28.2590   -5.5287 H     403  GCU403      0.0671
     77 H           2.8701   30.9313   -8.2764 H     403  GCU403      0.0742
     78 H           8.3136   33.5088  -14.7626 H     401  GCU401      0.0648
     79 H           5.1766   31.2167  -11.6131 H     402  NAG402      0.1492
     80 H           8.2984   27.3684  -12.3293 H     402  NAG402      0.2100
     81 H           4.6388   28.5839   -7.9099 H     403  GCU403      0.0655
     82 H           4.3701   33.2467  -12.0303 H     402  NAG402      0.0322
     83 H           5.5956   34.4920  -12.0539 H     402  NAG402      0.0322
     84 H           4.5285   34.3423  -10.6784 H     402  NAG402      0.0322
     85 H          -2.8743   26.2331   -6.5373 H     404  NAG404      0.0595
     86 H          -1.9467   25.4721   -5.1867 H     404  NAG404      0.0595
     87 H           0.5544   29.2548   -2.8556 H     404  NAG404      0.0642
     88 H          10.5263   31.7742  -15.8642 H     401  GCU401      0.0652
     89 H           7.4013   31.3589  -13.4305 H     401  GCU401      0.0938
     90 H           8.9747   31.1606  -17.8124 H     401  GCU401      0.2951
     91 H          -0.1677   29.4062   -5.7125 H     404  NAG404      0.0648
     92 H           7.6351   31.1304  -15.6403 H     401  GCU401      0.0741
     93 H           5.2940   28.9936  -10.1530 H     402  NAG402      0.0930
     94 H           8.9856   26.2198   -9.7733 H     402  NAG402      0.0584
     95 H           7.5662   26.0766   -8.6912 H     402  NAG402      0.0584
@<TRIPOS>BOND
     1     1    15    1
     2     2    48    1
     3     2    32    1
     4     2     9    1
     5     3    26    2
     6     4    20    1
     7     4    34    1
     8     5    51    1
     9     5    19    1
    10     5    37    1
    11     6    43    1
    12     7    21    1
    13     7    53    1
    14     7    36    1
    15     8    27    1
    16     8    32    1
    17    10    39    2
    18    11    33    1
    19    12    20    1
    20    12    48    1
    21    13    33    1
    22    13    41    1
    23    13    24    1
    24    14    26    1
    25    15    46    1
    26    15    35    1
    27    16    44    1
    28    16    39   am
    29    17    39    1
    30    18    31    2
    31    19    21    1
    32    19    52    1
    33    20    33    1
    34    21    40    1
    35    22    46    1
    36    22    50    1
    37    23    53    1
    38    25    45    1
    39    26    34    1
    40    27    44    1
    41    27    49    2
    42    28    51    1
    43    28    41    1
    44    29    35    1
    45    30    42    1
    46    30    37   am
    47    30    38    2
    48    31    50    1
    49    31    47    1
    50    32    43    1
    51    34    41    1
    52    35    45    1
    53    36    51    1
    54    44    48    1
    55    45    50    1
    56    46    52    1
    57     1    54    1
    58     2    55    1
    59     5    56    1
    60     6    57    1
    61     7    58    1
    62     9    59    1
    63    11    60    1
    64    13    61    1
    65    14    62    1
    66    15    63    1
    67    16    64    1
    68    17    65    1
    69    17    66    1
    70    17    67    1
    71    19    68    1
    72    20    69    1
    73    21    70    1
    74    23    71    1
    75    24    72    1
    76    25    73    1
    77    29    74    1
    78    32    75    1
    79    33    76    1
    80    34    77    1
    81    35    78    1
    82    37    79    1
    83    40    80    1
    84    41    81    1
    85    42    82    1
    86    42    83    1
    87    42    84    1
    88    43    85    1
    89    43    86    1
    90    44    87    1
    91    45    88    1
    92    46    89    1
    93    47    90    1
    94    48    91    1
    95    50    92    1
    96    51    93    1
    97    53    94    1
    98    53    95    1
