@<TRIPOS>MOLECULE
1FQ9_LIGAND_2_uncharged.pdb
 155 160 0 0 0
SMALL
GASTEIGER

@<TRIPOS>ATOM
      1  O1S       95.5540   27.0860  116.1360 O.2   301  UAP301     -0.3452
      2  C2       108.0980   34.0090  121.6860 C.3   304  SGN304      0.1081
      3  C6        99.4910   30.7090  111.7480 C.2   301  UAP301      0.3341
      4  O4S      102.7840   26.1120  120.7150 O.2   302  SGN302     -0.3452
      5  O3       115.2440   39.0530  120.8870 O.3   306  SGN306     -0.3874
      6  O6S      100.5400   25.9980  119.9660 O.2   302  SGN302     -0.3452
      7  O4       114.9460   36.4920  122.0820 O.3   306  SGN306     -0.3401
      8  O3S      112.9050   31.7360  123.9300 O.2   305  IDS305     -0.3452
      9  C1       100.0210   28.2980  114.7030 C.3   301  UAP301      0.1913
     10  C2       104.6080   28.0770  114.5250 C.3   302  SGN302      0.1081
     11  O1S      108.2740   35.6750  124.4230 O.3   304  SGN304     -0.0534
     12  C1       113.8230   35.6370  121.8280 C.3   305  IDS305      0.1915
     13  C1       105.1550   27.9270  115.9470 C.3   302  SGN302      0.1795
     14  O1S      116.0500   40.8650  118.5730 O.3   306  SGN306     -0.0534
     15  O1S      108.3340   33.1000  114.3440 O.2   303  IDS303     -0.3452
     16  S1       108.1360   34.2470  124.4460 S.3   304  SGN304      0.0767
     17  O61      110.3120   38.1900  119.7230 O.2   305  IDS305     -0.2480
     18  O6       106.9590   35.4870  117.6730 O.3   304  SGN304     -0.2520
     19  C2        98.8070   28.7030  115.5130 C.3   301  UAP301      0.1620
     20  O1       110.1770   35.2720  121.5130 O.3   304  SGN304     -0.3406
     21  O5S      101.9150   24.1010  119.8290 O.3   302  SGN302     -0.2682
     22  O62      100.0470   30.0130  110.8710 O.3   301  UAP301     -0.4788
     23  O5        99.9880   28.8250  113.3810 O.3   301  UAP301     -0.3340
     24  C6       116.8350   34.3800  121.2460 C.3   306  SGN306      0.1035
     25  S2       106.1770   36.0480  116.2140 S.3   304  SGN304     -0.0008
     26  C1       118.5900   37.5140  120.1160 C.3   306  SGN306      0.1762
     27  C3        98.3700   30.1760  115.4970 C.3   301  UAP301      0.0912
     28  C6       111.2510   37.3860  119.5980 C.2   305  IDS305      0.3367
     29  O5S      116.0920   31.6980  119.5600 O.2   306  SGN306     -0.3452
     30  O61       98.9700   31.8200  111.5220 O.2   301  UAP301     -0.2481
     31  O5       113.0370   35.9940  120.6890 O.3   305  IDS305     -0.3314
     32  O1       119.3440   37.9010  121.2600 O.3   306  SGN306     -0.3656
     33  S2       117.3650   31.9740  120.1640 S.3   306  SGN306     -0.0008
     34  C3       103.3140   28.8750  114.5310 C.3   302  SGN302      0.1055
     35  O2S      107.6940   31.5080  112.7350 O.2   303  IDS303     -0.3452
     36  N        108.6710   33.5440  122.9250 N.3   304  SGN304     -0.1775
     37  C5       102.8580   27.9730  116.7930 C.3   302  SGN302      0.1158
     38  C3       108.4810   32.9510  120.6460 C.3   304  SGN304      0.1055
     39  C2       108.0380   30.8970  116.5000 C.3   303  IDS303      0.1644
     40  S1       117.4490   40.9460  118.9100 S.3   306  SGN306      0.0767
     41  O3       108.6010   29.3800  118.2690 O.3   303  IDS303     -0.3863
     42  O2       113.1030   34.2880  123.8380 O.3   305  IDS305     -0.2435
     43  O3S       97.4890   25.7870  116.4220 O.2   301  UAP301     -0.3452
     44  O1S      113.3250   32.6390  121.8310 O.2   305  IDS305     -0.3452
     45  O1S      105.8040   28.7190  111.1910 O.3   302  SGN302     -0.0534
     46  O2S      106.1190   26.7400  112.4440 O.3   302  SGN302     -0.0534
     47  O2S      118.2580   40.6080  117.7800 O.3   306  SGN306     -0.0534
     48  C1       108.7580   35.3710  121.3620 C.3   304  SGN304      0.1795
     49  O3S      117.7720   42.2700  119.3800 O.3   306  SGN306     -0.0534
     50  N        105.5650   28.8730  113.7950 N.3   302  SGN302     -0.1775
     51  O3S      106.7700   33.8960  124.6670 O.3   304  SGN304     -0.0534
     52  O4       101.1130   28.7990  115.4190 O.3   302  SGN302     -0.3401
     53  O6       102.3970   26.0100  118.1380 O.3   302  SGN302     -0.2520
     54  O3       102.8180   28.9970  113.2100 O.3   302  SGN302     -0.3874
     55  C2       117.3640   38.4310  119.9810 C.3   306  SGN306      0.1079
     56  C3       116.3480   38.1900  121.0870 C.3   306  SGN306      0.1055
     57  N        117.8220   39.7790  120.1710 N.3   306  SGN306     -0.1775
     58  C5       111.8940   36.7950  120.8530 C.3   305  IDS305      0.1863
     59  O5       106.1760   31.9380  117.6720 O.3   303  IDS303     -0.3314
     60  S         96.9360   27.1060  116.4210 S.3   301  UAP301     -0.0004
     61  O5S      104.7560   35.9060  116.3950 O.2   304  SGN304     -0.3452
     62  O2        97.7160   27.9470  115.1110 O.3   301  UAP301     -0.2436
     63  C1       107.5180   32.1400  117.2520 C.3   303  IDS303      0.1915
     64  S        108.3520   31.7170  113.9950 S.3   303  IDS303     -0.0004
     65  O61      104.2490   30.0760  119.8920 O.2   303  IDS303     -0.2480
     66  C4       106.2780   29.3940  117.5820 C.3   303  IDS303      0.1267
     67  C3       111.6070   36.1910  123.2690 C.3   305  IDS305      0.1174
     68  O4S      106.5160   37.4220  116.0010 O.2   304  SGN304     -0.3452
     69  S1       106.3620   28.1490  112.3920 S.3   302  SGN302      0.0767
     70  S2       101.8890   25.5360  119.7510 S.3   302  SGN302     -0.0008
     71  O3       111.7710   37.3660  123.9580 O.3   305  IDS305     -0.3863
     72  C4       102.3220   28.0990  115.3740 C.3   302  SGN302      0.1176
     73  O2S      108.9540   33.6830  125.4650 O.3   304  SGN304     -0.0534
     74  O3S      109.6940   31.1890  113.9980 O.3   303  IDS303     -0.2682
     75  C3       107.7640   29.5470  117.1850 C.3   303  IDS303      0.1174
     76  O4S      118.4320   31.4040  119.3910 O.2   306  SGN306     -0.3452
     77  S        112.5940   32.7920  123.0380 S.3   305  IDS305     -0.0004
     78  C6       104.4190   30.5830  118.7810 C.2   303  IDS303      0.3367
     79  C6       108.3780   35.3530  117.6610 C.3   304  SGN304      0.1035
     80  O62      103.5400   31.2070  118.1560 O.3   303  IDS303     -0.4788
     81  O2S      111.2020   32.8490  122.7770 O.3   305  IDS305     -0.2682
     82  O62      111.5450   36.8400  118.5100 O.3   305  IDS305     -0.4788
     83  C5        99.4370   30.1090  113.1480 C.3   301  UAP301      0.1603
     84  O5       118.1360   36.1440  120.2060 O.3   306  SGN306     -0.3416
     85  O4       108.4140   32.4610  118.3000 O.3   304  SGN304     -0.3401
     86  O2       107.4660   30.8480  115.2330 O.3   303  IDS303     -0.2435
     87  C5       105.8160   30.6920  118.2390 C.3   303  IDS303      0.1863
     88  C5       108.7740   34.7760  118.9970 C.3   304  SGN304      0.1158
     89  O2S       97.1760   27.8010  117.6620 O.3   301  UAP301     -0.2682
     90  O6       117.5560   33.7180  120.2300 O.3   306  SGN306     -0.2520
     91  O3       107.8340   31.7330  120.9610 O.3   304  SGN304     -0.3874
     92  C4        98.6550   30.9350  114.1710 C.3   301  UAP301      0.0128
     93  O3S      107.7810   28.3950  112.4610 O.3   302  SGN302     -0.0534
     94  C4       115.9090   36.7230  121.0370 C.3   306  SGN306      0.1176
     95  O5       108.4020   35.7400  120.0170 O.3   304  SGN304     -0.3413
     96  O3        99.0180   30.8080  116.5560 O.3   301  UAP301     -0.3889
     97  O5       104.1360   27.2840  116.7580 O.3   302  SGN302     -0.3413
     98  C2       112.9830   35.5130  123.1270 C.3   305  IDS305      0.1644
     99  C4       110.8810   36.4470  121.9340 C.3   305  IDS305      0.1267
    100  C4       108.0410   33.4470  119.2740 C.3   304  SGN304      0.1176
    101  O1       105.4680   29.2400  116.4110 O.3   302  SGN302     -0.3406
    102  C6       101.8530   27.2160  117.6500 C.3   302  SGN302      0.1035
    103  C5       117.1700   35.8610  121.2630 C.3   306  SGN306      0.1158
    104  O6S      106.6260   35.2260  115.1130 O.3   304  SGN304     -0.2682
    105  O6S      117.3850   31.4670  121.5130 O.3   306  SGN306     -0.2682
    106  H        107.0370   34.1410  121.7150 H     304  SGN304      0.0554
    107  H        115.5440   39.9750  120.9220 H     306  SGN306      0.2100
    108  H        100.0680   27.2360  114.5770 H     301  UAP301      0.0939
    109  H        104.4400   27.1080  114.1020 H     302  SGN302      0.0554
    110  H        114.2090   34.6770  121.5560 H     305  IDS305      0.0939
    111  H        106.0370   27.3230  115.9950 H     302  SGN302      0.0927
    112  H         99.1310   28.5270  116.5170 H     301  UAP301      0.0697
    113  H        100.4220   29.1850  111.0980 H     301  UAP301      0.2951
    114  H        115.7870   34.2590  121.0690 H     306  SGN306      0.0610
    115  H        117.1030   33.9560  122.1910 H     306  SGN306      0.0610
    116  H        119.2290   37.6010  119.2620 H     306  SGN306      0.0925
    117  H         97.3040   30.1950  115.5910 H     301  UAP301      0.0622
    118  H        118.7880   37.8320  122.0520 H     306  SGN306      0.2125
    119  H        103.4730   29.8570  114.9240 H     302  SGN302      0.0638
    120  H        109.6770   33.7010  122.8640 H     304  SGN304      0.1487
    121  H        103.0020   28.9420  117.2220 H     302  SGN302      0.0648
    122  H        109.5380   32.7860  120.6450 H     304  SGN304      0.0638
    123  H        109.1010   31.0200  116.4750 H     303  IDS303      0.0698
    124  H        109.5230   29.4820  117.9850 H     303  IDS303      0.2100
    125  H        108.4110   36.1260  122.0370 H     304  SGN304      0.0927
    126  H        106.2970   29.1430  114.4520 H     302  SGN302      0.1487
    127  H        102.6680   28.1140  112.8380 H     302  SGN302      0.2100
    128  H        116.9130   38.2460  119.0280 H     306  SGN306      0.0554
    129  H        116.7730   38.3920  122.0480 H     306  SGN306      0.0638
    130  H        117.4090   40.1230  121.0380 H     306  SGN306      0.1487
    131  H        112.4310   37.6060  121.3000 H     305  IDS305      0.0742
    132  H        107.4880   32.9910  116.6040 H     303  IDS303      0.0939
    133  H        106.1840   28.5470  118.2300 H     303  IDS303      0.0656
    134  H        110.9750   35.5110  123.8010 H     305  IDS305      0.0649
    135  H        112.3470   37.9600  123.4520 H     305  IDS305      0.2100
    136  H        102.1740   27.1290  114.9480 H     302  SGN302      0.0650
    137  H        107.9730   28.7700  116.4790 H     303  IDS303      0.0649
    138  H        108.8370   36.3100  117.5230 H     304  SGN304      0.0610
    139  H        108.6960   34.7190  116.8600 H     304  SGN304      0.0610
    140  H        103.7320   31.5690  117.3140 H     303  IDS303      0.2951
    141  H        112.2630   36.2400  118.4660 H     305  IDS305      0.2951
    142  H        100.1810   29.8760  113.8800 H     301  UAP301      0.0715
    143  H        106.4790   30.7680  119.0750 H     303  IDS303      0.0742
    144  H        109.8260   34.5800  119.0010 H     304  SGN304      0.0648
    145  H        106.8740   31.8690  120.9650 H     304  SGN304      0.2100
    146  H         99.2210   31.8140  114.3990 H     301  UAP301      0.0321
    147  H         97.7070   31.1640  113.7310 H     301  UAP301      0.0321
    148  H        115.4590   36.4750  120.0990 H     306  SGN306      0.0650
    149  H         99.9780   30.7620  116.4210 H     301  UAP301      0.2099
    150  H        113.5580   36.2470  123.6530 H     305  IDS305      0.0698
    151  H        110.1940   37.2540  122.0810 H     305  IDS305      0.0656
    152  H        106.9830   33.6030  119.2300 H     304  SGN304      0.0650
    153  H        100.9890   26.9940  117.0590 H     302  SGN302      0.0610
    154  H        101.5940   27.8310  118.4860 H     302  SGN302      0.0610
    155  H        117.5780   36.1040  122.2220 H     306  SGN306      0.0648
@<TRIPOS>BOND
     1     1    60    2
     2     2    48    1
     3     2    38    1
     4     2    36    1
     5     2   106    1
     6     3    83    1
     7     3    30    2
     8     3    22    1
     9     4    70    2
    10     5    56    1
    11     5   107    1
    12     6    70    2
    13     7    12    1
    14     7    94    1
    15     8    77    2
    16     9    19    1
    17     9    23    1
    18     9    52    1
    19     9   108    1
    20    10    13    1
    21    10    34    1
    22    10    50    1
    23    10   109    1
    24    11    16    1
    25    12    98    1
    26    12    31    1
    27    12   110    1
    28    13   101    1
    29    13    97    1
    30    13   111    1
    31    14    40    1
    32    15    64    2
    33    16    36    1
    34    16    73    1
    35    16    51    1
    36    17    28    2
    37    18    79    1
    38    18    25    1
    39    19    27    1
    40    19    62    1
    41    19   112    1
    42    20    48    1
    43    20    99    1
    44    21    70    1
    45    22   113    1
    46    23    83    1
    47    24   103    1
    48    24    90    1
    49    24   114    1
    50    24   115    1
    51    25    68    2
    52    25    61    2
    53    25   104    1
    54    26    55    1
    55    26    32    1
    56    26    84    1
    57    26   116    1
    58    27    92    1
    59    27    96    1
    60    27   117    1
    61    28    58    1
    62    28    82    1
    63    29    33    2
    64    31    58    1
    65    32   118    1
    66    33    90    1
    67    33    76    2
    68    33   105    1
    69    34    72    1
    70    34    54    1
    71    34   119    1
    72    35    64    2
    73    36   120    1
    74    37    72    1
    75    37   102    1
    76    37    97    1
    77    37   121    1
    78    38   100    1
    79    38    91    1
    80    38   122    1
    81    39    63    1
    82    39    75    1
    83    39    86    1
    84    39   123    1
    85    40    57    1
    86    40    47    1
    87    40    49    1
    88    41    75    1
    89    41   124    1
    90    42    98    1
    91    42    77    1
    92    43    60    2
    93    44    77    2
    94    45    69    1
    95    46    69    1
    96    48    95    1
    97    48   125    1
    98    50    69    1
    99    50   126    1
   100    52    72    1
   101    53   102    1
   102    53    70    1
   103    54   127    1
   104    55    56    1
   105    55    57    1
   106    55   128    1
   107    56    94    1
   108    56   129    1
   109    57   130    1
   110    58    99    1
   111    58   131    1
   112    59    63    1
   113    59    87    1
   114    60    62    1
   115    60    89    1
   116    63    85    1
   117    63   132    1
   118    64    86    1
   119    64    74    1
   120    65    78    2
   121    66   101    1
   122    66    75    1
   123    66    87    1
   124    66   133    1
   125    67    98    1
   126    67    99    1
   127    67    71    1
   128    67   134    1
   129    69    93    1
   130    71   135    1
   131    72   136    1
   132    75   137    1
   133    77    81    1
   134    78    87    1
   135    78    80    1
   136    79    88    1
   137    79   138    1
   138    79   139    1
   139    80   140    1
   140    82   141    1
   141    83    92    1
   142    83   142    1
   143    84   103    1
   144    85   100    1
   145    87   143    1
   146    88   100    1
   147    88    95    1
   148    88   144    1
   149    91   145    1
   150    92   146    1
   151    92   147    1
   152    94   103    1
   153    94   148    1
   154    96   149    1
   155    98   150    1
   156    99   151    1
   157   100   152    1
   158   102   153    1
   159   102   154    1
   160   103   155    1
