@<TRIPOS>MOLECULE
1FQ9_LIGAND_1_uncharged.pdb
 206 213 0 0 0
SMALL
GASTEIGER

@<TRIPOS>ATOM
      1  S         86.4640   27.4680  104.2880 S.3   303  IDS303     -0.0004
      2  C3        71.2300   15.4250   97.5790 C.3   308  SGN308      0.1055
      3  C3        78.0320   21.1430   99.6090 C.3   306  SGN306      0.1055
      4  C4        83.9960   28.4400  108.2850 C.3   303  IDS303      0.1267
      5  O3        79.3980   21.5130   99.5810 O.3   306  SGN306     -0.3874
      6  O6        71.4620   15.7730   93.3590 O.3   308  SGN308     -0.2520
      7  C4        91.7540   27.4650  111.6520 C.3   301  UAP301      0.0128
      8  O4S       72.9740   17.6920   92.3350 O.2   308  SGN308     -0.3452
      9  C5        91.5990   28.9110  111.2020 C.3   301  UAP301      0.1603
     10  O3S       86.3250   31.8940  106.1060 O.3   302  SGN302     -0.0534
     11  S1        70.7960   12.0770   99.0780 S.3   308  SGN308      0.0767
     12  O2S       90.3790   27.2940  116.5210 O.2   301  UAP301     -0.3452
     13  N         80.1540   22.2100  108.2040 N.3   304  SGN304     -0.1775
     14  O4        72.5250   16.9610   96.1520 O.3   308  SGN308     -0.3401
     15  O1        80.5070   21.8290  105.5970 O.3   304  SGN304     -0.3406
     16  O6        73.6190   22.3340  101.3530 O.3   306  SGN306     -0.2520
     17  O3        72.4170   15.0230   98.2350 O.3   308  SGN308     -0.3874
     18  C3        90.9460   27.1120  112.9250 C.3   301  UAP301      0.0912
     19  O3S       80.6980   20.3660  109.9530 O.3   304  SGN304     -0.0534
     20  S         71.9640   20.9710   93.8930 S.3   307  IDU307     -0.0004
     21  C4        80.0900   20.9150  104.5940 C.3   305  IDS305      0.1267
     22  C4        75.1120   19.3480   96.8860 C.3   307  IDU307      0.1267
     23  O4S       71.5590   20.7390  101.0170 O.2   306  SGN306     -0.3452
     24  C6        75.2790   17.5080   98.5950 C.2   307  IDU307      0.3367
     25  C2        70.2800   14.2380   97.4280 C.3   308  SGN308      0.1079
     26  C2        77.3990   21.4410   98.2680 C.3   306  SGN306      0.1081
     27  S1        79.6920   20.7190  109.0040 S.3   304  SGN304      0.0767
     28  O3S       89.1430   29.3050  116.1740 O.2   301  UAP301     -0.3452
     29  O3S       70.6070   21.0500   93.4190 O.3   307  IDU307     -0.2682
     30  O5        69.2750   15.1920   95.4320 O.3   308  SGN308     -0.3416
     31  O3        74.7720   20.0600   94.6230 O.3   307  IDU307     -0.3863
     32  O1        68.1820   15.4580   97.5500 O.3   308  SGN308     -0.3656
     33  O6S       85.7110   31.9610  113.2960 O.2   302  SGN302     -0.3452
     34  S         76.7940   23.1090  106.3370 S.3   305  IDS305     -0.0004
     35  O4S       86.9310   21.8990  106.9920 O.2   304  SGN304     -0.3452
     36  O1S       79.5240   19.6690  108.0470 O.3   304  SGN304     -0.0534
     37  O1S       87.3520   26.3500  104.1830 O.2   303  IDS303     -0.3452
     38  O5S       73.5240   15.4890   91.7540 O.2   308  SGN308     -0.3452
     39  C1        89.6950   29.3980  112.6820 C.3   301  UAP301      0.1913
     40  O3        81.7110   24.5140  108.5700 O.3   304  SGN304     -0.3874
     41  O5        72.9760   18.3820   98.0360 O.3   307  IDU307     -0.3314
     42  O2        85.9430   27.5670  105.9580 O.3   303  IDS303     -0.2435
     43  O1S       88.2530   30.6980  105.3840 O.3   302  SGN302     -0.0534
     44  O5S       87.2730   23.4790  105.2790 O.2   304  SGN304     -0.3452
     45  O2        72.1300   19.3790   94.6350 O.3   307  IDU307     -0.2435
     46  C2        90.2190   28.2870  113.5820 C.3   301  UAP301      0.1620
     47  O1        85.3360   28.7970  108.6070 O.3   302  SGN302     -0.3406
     48  O61       93.4220   28.5540  109.6730 O.2   301  UAP301     -0.2481
     49  O6        86.5700   29.5580  113.7900 O.3   302  SGN302     -0.2520
     50  C5        75.8010   21.5510  100.6720 C.3   306  SGN306      0.1158
     51  C4        83.1270   23.8560  106.7330 C.3   304  SGN304      0.1176
     52  C2        77.9020   22.1060  104.1840 C.3   305  IDS305      0.1644
     53  N         70.0340   13.6570   98.7300 N.3   308  SGN308     -0.1775
     54  O2        91.0740   28.8250  114.5420 O.3   301  UAP301     -0.2436
     55  C1        85.5440   30.0120  109.2930 C.3   302  SGN302      0.1795
     56  O5S       71.9020   21.5920  103.1870 O.2   306  SGN306     -0.3452
     57  S2        72.5460   21.0700  102.0130 S.3   306  SGN306     -0.0008
     58  O3S       72.1910   12.0990   98.6830 O.3   308  SGN308     -0.0534
     59  C3        81.7470   23.7550  107.3810 C.3   304  SGN304      0.1055
     60  C3        83.8180   28.3550  106.7530 C.3   303  IDS303      0.1174
     61  O62       92.5620   30.5670  109.8360 O.3   301  UAP301     -0.4788
     62  O2S       88.4170   32.2790  107.1360 O.3   302  SGN302     -0.0534
     63  O5        79.7690   22.6610  102.7580 O.3   305  IDS305     -0.3314
     64  O2S       78.8250   20.0690   94.9730 O.3   306  SGN306     -0.0534
     65  O3        89.2550   30.1790  109.5430 O.3   302  SGN302     -0.3874
     66  O5        75.2840   21.8380   99.3630 O.3   306  SGN306     -0.3413
     67  C1        78.3430   22.5980  102.7880 C.3   305  IDS305      0.1915
     68  C1        75.9400   21.0200   98.4160 C.3   306  SGN306      0.1795
     69  O5S       84.6890   30.8050  115.0730 O.2   302  SGN302     -0.3452
     70  C6        83.4600   27.0210  110.3070 C.2   303  IDS303      0.3367
     71  O4S       86.8880   31.6390  115.3320 O.3   302  SGN302     -0.2682
     72  C4        71.5680   15.8620   96.1550 C.3   308  SGN308      0.1176
     73  O4        83.3670   25.2050  106.3930 O.3   304  SGN304     -0.3401
     74  O1S       91.3310   29.3560  117.0280 O.3   301  UAP301     -0.2682
     75  O4        88.5830   28.8240  111.9970 O.3   302  SGN302     -0.3401
     76  C1        84.5360   25.8250  106.8600 C.3   303  IDS303      0.1915
     77  O3S       85.2860   27.2700  103.4680 O.3   303  IDS303     -0.2682
     78  C4        77.2880   21.9520  100.6770 C.3   306  SGN306      0.1176
     79  C6        81.8350   21.2210  102.7620 C.2   305  IDS305      0.3367
     80  O1S       78.1550   22.2930   95.4310 O.3   306  SGN306     -0.0534
     81  C3        78.5700   20.7980  104.6510 C.3   305  IDS305      0.1174
     82  S2        73.0690   16.3450   92.8140 S.3   308  SGN308     -0.0008
     83  O3S       76.5360   24.4710  106.6670 O.3   305  IDS305     -0.2682
     84  O61       82.2390   20.0450  102.7890 O.2   305  IDS305     -0.2480
     85  C1        72.2790   18.2400   96.7840 C.3   307  IDU307      0.1915
     86  C2        81.5010   22.2960  107.7180 C.3   304  SGN304      0.1081
     87  O2S       70.7020   11.8610  100.4910 O.3   308  SGN308     -0.0534
     88  O1S       70.1000   11.0350   98.3590 O.3   308  SGN308     -0.0534
     89  C5        86.2520   29.0300  111.4330 C.3   302  SGN302      0.1158
     90  O3        82.4790   28.2020  106.4200 O.3   303  IDS303     -0.3863
     91  S2        86.8530   22.1310  105.5880 S.3   304  SGN304     -0.0008
     92  C6        85.7400   28.8780  112.8660 C.3   302  SGN302      0.1035
     93  O62       75.7910   17.7220   99.7140 O.3   307  IDU307     -0.4788
     94  C2        86.9800   30.4690  109.0450 C.3   302  SGN302      0.1081
     95  C1        81.5580   21.4360  106.4500 C.3   304  SGN304      0.1795
     96  O2        78.0610   23.0990  105.1520 O.3   305  IDS305     -0.2435
     97  O3        78.1400   19.7650  103.8660 O.3   305  IDS305     -0.3863
     98  O5        82.8250   21.6470  105.8160 O.3   304  SGN304     -0.3413
     99  C1        68.9600   14.5970   96.7230 C.3   308  SGN308      0.1762
    100  C5        74.3970   18.6090   98.0410 C.3   307  IDU307      0.1863
    101  N         78.0170   20.5050   97.3680 N.3   306  SGN306     -0.1775
    102  C3        74.3320   19.1610   95.5820 C.3   307  IDU307      0.1174
    103  C5        83.1090   23.0160  105.4620 C.3   304  SGN304      0.1158
    104  C6        75.0050   22.3350  101.7110 C.3   306  SGN306      0.1035
    105  O61       75.5610   16.5370   97.8710 O.2   307  IDU307     -0.2480
    106  C3        87.9770   29.6470  109.8160 C.3   302  SGN302      0.1055
    107  O5        85.3200   29.8790  110.7110 O.3   302  SGN302     -0.3413
    108  O2S       72.2600   21.9830   94.8670 O.2   307  IDU307     -0.3452
    109  S1        78.8430   21.1230   95.9360 S.3   306  SGN306      0.0767
    110  C5        83.8130   27.0510  108.8350 C.3   303  IDS303      0.1863
    111  O62       82.5160   22.1880  102.3870 O.3   305  IDS305     -0.4788
    112  S         90.4390   28.6800  116.1680 S.3   301  UAP301     -0.0004
    113  C6        92.6010   29.3620  110.1480 C.2   301  UAP301      0.3341
    114  O3        89.9930   26.1610  112.6130 O.3   301  UAP301     -0.3889
    115  O4        77.8510   21.6190  101.9190 O.3   306  SGN306     -0.3401
    116  O5        84.5560   25.9930  108.2810 O.3   303  IDS303     -0.3314
    117  O6S       73.3330   19.9050  102.3800 O.3   306  SGN306     -0.2682
    118  O2S       87.1490   28.6850  103.9610 O.2   303  IDS303     -0.3452
    119  C5        80.4600   21.5460  103.2650 C.3   305  IDS305      0.1863
    120  C2        84.6270   27.1890  106.1470 C.3   303  IDS303      0.1644
    121  S1        87.5820   31.3010  106.5090 S.3   302  SGN302      0.0767
    122  O1        75.2480   20.7460   97.2290 O.3   306  SGN306     -0.3406
    123  O2S       75.6420   22.4730  105.7880 O.2   305  IDS305     -0.3452
    124  C4        87.6480   29.6440  111.3120 C.3   302  SGN302      0.1176
    125  C6        70.5500   16.7050   93.9750 C.3   308  SGN308      0.1035
    126  C5        70.2620   16.2810   95.4220 C.3   308  SGN308      0.1158
    127  O6S       87.6660   21.2000  104.8550 O.3   304  SGN304     -0.2682
    128  O62       84.3040   26.5090  111.0720 O.3   303  IDS303     -0.4788
    129  O5        90.7090   29.8450  111.7720 O.3   301  UAP301     -0.3340
    130  O3S       80.2070   21.4470   96.2680 O.3   306  SGN306     -0.0534
    131  O6        85.1900   21.8940  105.0710 O.3   304  SGN304     -0.2520
    132  O6S       73.9950   16.2510   93.9190 O.3   308  SGN308     -0.2682
    133  O2S       78.4690   20.9550  109.6710 O.3   304  SGN304     -0.0534
    134  O1S       72.8900   21.0480   92.8100 O.2   307  IDU307     -0.3452
    135  S2        85.9410   31.0730  114.4140 S.3   302  SGN302     -0.0008
    136  O1S       77.2800   22.4010  107.4540 O.2   305  IDS305     -0.3452
    137  N         87.2660   30.0690  107.6980 N.3   302  SGN302     -0.1775
    138  O61       82.3450   27.4430  110.6750 O.2   303  IDS303     -0.2480
    139  C6        84.4370   23.0550  104.7390 C.3   304  SGN304      0.1035
    140  C2        72.8300   19.3540   95.8580 C.3   307  IDU307      0.1644
    141  H         70.7850   16.2100   98.1540 H     308  SGN308      0.0638
    142  H         77.9670   20.0980   99.8310 H     306  SGN306      0.0638
    143  H         83.3040   29.1550  108.6780 H     303  IDS303      0.0656
    144  H         79.4730   22.4590   99.3810 H     306  SGN306      0.2100
    145  H         91.4250   26.8280  110.8570 H     301  UAP301      0.0321
    146  H         92.7870   27.3240  111.8920 H     301  UAP301      0.0321
    147  H         90.5330   28.8400  111.1400 H     301  UAP301      0.0715
    148  H         79.5300   22.3380  107.4070 H     304  SGN304      0.1487
    149  H         72.8390   14.3100   97.7310 H     308  SGN308      0.2100
    150  H         91.6750   26.7630  113.6260 H     301  UAP301      0.0622
    151  H         80.5390   19.9530  104.7230 H     305  IDS305      0.0656
    152  H         76.0900   18.9390   96.7390 H     307  IDU307      0.0656
    153  H         70.7570   13.5220   96.7920 H     308  SGN308      0.0554
    154  H         77.4970   22.4560   97.9450 H     306  SGN306      0.0554
    155  H         75.7190   19.9240   94.4620 H     307  IDU307      0.2100
    156  H         68.0000   15.0170   98.3950 H     308  SGN308      0.2125
    157  H         89.4070   30.2670  113.2370 H     301  UAP301      0.0939
    158  H         81.8680   25.4480  108.3620 H     304  SGN304      0.2100
    159  H         89.3200   27.8670  113.9820 H     301  UAP301      0.0697
    160  H         75.7120   20.5130  100.9140 H     306  SGN306      0.0648
    161  H         83.8890   23.5100  107.3990 H     304  SGN304      0.0650
    162  H         76.8630   21.8800  104.0680 H     305  IDS305      0.0698
    163  H         70.3680   14.3200   99.4300 H     308  SGN308      0.1487
    164  H         84.8430   30.7320  108.9250 H     302  SGN302      0.0927
    165  H         81.0000   24.1280  106.7120 H     304  SGN304      0.0638
    166  H         84.1860   29.2730  106.3460 H     303  IDS303      0.0649
    167  H         91.9230   31.1310  110.2250 H     301  UAP301      0.2951
    168  H         89.4160   30.1590  108.5870 H     302  SGN302      0.2100
    169  H         77.9820   23.5710  102.5270 H     305  IDS305      0.0939
    170  H         75.9430   20.0320   98.8270 H     306  SGN306      0.0927
    171  H         72.0200   15.0380   95.6420 H     308  SGN308      0.0650
    172  H         85.3790   25.2040  106.6410 H     303  IDS303      0.0939
    173  H         77.3690   23.0020  100.4880 H     306  SGN306      0.0650
    174  H         78.2940   20.6100  105.6680 H     305  IDS305      0.0649
    175  H         71.2250   18.3090   96.9560 H     307  IDU307      0.0939
    176  H         82.2330   21.9590  108.4210 H     304  SGN304      0.0554
    177  H         86.3230   28.0410  111.0300 H     302  SGN302      0.0648
    178  H         82.1470   27.3690  106.7900 H     303  IDS303      0.2100
    179  H         84.7510   29.2810  112.9260 H     302  SGN302      0.0610
    180  H         85.7440   27.8370  113.1150 H     302  SGN302      0.0610
    181  H         75.5340   18.4740  100.2110 H     307  IDU307      0.2951
    182  H         87.0520   31.5080  109.2900 H     302  SGN302      0.0554
    183  H         81.4510   20.3970  106.6820 H     304  SGN304      0.0927
    184  H         78.3890   19.9340  102.9440 H     305  IDS305      0.2100
    185  H         68.3680   13.7220   96.5530 H     308  SGN308      0.0925
    186  H         74.2890   19.3820   98.7730 H     307  IDU307      0.0742
    187  H         77.2850   19.8730   97.0430 H     306  SGN306      0.1487
    188  H         74.4960   18.1720   95.2080 H     307  IDU307      0.0649
    189  H         82.3600   23.4180  104.8120 H     304  SGN304      0.0648
    190  H         75.1250   21.8780  102.6710 H     306  SGN306      0.0610
    191  H         75.3630   23.3430  101.7470 H     306  SGN306      0.0610
    192  H         87.9450   28.6210  109.5140 H     302  SGN302      0.0638
    193  H         82.9060   26.7230  108.3720 H     303  IDS303      0.0742
    194  H         82.1480   23.0500  102.3920 H     305  IDS305      0.2951
    195  H         89.3620   26.5320  111.9770 H     301  UAP301      0.2099
    196  H         79.8160   20.9780  102.6260 H     305  IDS305      0.0742
    197  H         84.1460   27.0010  105.2100 H     303  IDS303      0.0698
    198  H         87.6880   30.6280  111.7300 H     302  SGN302      0.0650
    199  H         69.6340   16.7220   93.4220 H     308  SGN308      0.0610
    200  H         70.9920   17.6790   93.9760 H     308  SGN308      0.0610
    201  H         69.8560   17.1180   95.9510 H     308  SGN308      0.0648
    202  H         85.1250   26.2110  110.7320 H     303  IDS303      0.2951
    203  H         86.4640   29.5320  107.3680 H     302  SGN302      0.1487
    204  H         84.9790   23.9290  105.0350 H     304  SGN304      0.0610
    205  H         84.2680   23.0820  103.6830 H     304  SGN304      0.0610
    206  H         72.6910   20.2860   96.3650 H     307  IDU307      0.0698
@<TRIPOS>BOND
     1     1    42    1
     2     1    37    2
     3     1   118    2
     4     1    77    1
     5     2    25    1
     6     2    72    1
     7     2    17    1
     8     2   141    1
     9     3    26    1
    10     3    78    1
    11     3     5    1
    12     3   142    1
    13     4    47    1
    14     4    60    1
    15     4   110    1
    16     4   143    1
    17     5   144    1
    18     6   125    1
    19     6    82    1
    20     7    18    1
    21     7     9    1
    22     7   145    1
    23     7   146    1
    24     8    82    2
    25     9   113    1
    26     9   129    1
    27     9   147    1
    28    10   121    1
    29    11    53    1
    30    11    88    1
    31    11    87    1
    32    11    58    1
    33    12   112    2
    34    13    86    1
    35    13    27    1
    36    13   148    1
    37    14    85    1
    38    14    72    1
    39    15    95    1
    40    15    21    1
    41    16   104    1
    42    16    57    1
    43    17   149    1
    44    18    46    1
    45    18   114    1
    46    18   150    1
    47    19    27    1
    48    20    45    1
    49    20   134    2
    50    20   108    2
    51    20    29    1
    52    21    81    1
    53    21   119    1
    54    21   151    1
    55    22   122    1
    56    22   102    1
    57    22   100    1
    58    22   152    1
    59    23    57    2
    60    24   100    1
    61    24   105    2
    62    24    93    1
    63    25    99    1
    64    25    53    1
    65    25   153    1
    66    26    68    1
    67    26   101    1
    68    26   154    1
    69    27    36    1
    70    27   133    1
    71    28   112    2
    72    30    99    1
    73    30   126    1
    74    31   102    1
    75    31   155    1
    76    32    99    1
    77    32   156    1
    78    33   135    2
    79    34    96    1
    80    34   136    2
    81    34   123    2
    82    34    83    1
    83    35    91    2
    84    38    82    2
    85    39    46    1
    86    39   129    1
    87    39    75    1
    88    39   157    1
    89    40    59    1
    90    40   158    1
    91    41    85    1
    92    41   100    1
    93    42   120    1
    94    43   121    1
    95    44    91    2
    96    45   140    1
    97    46    54    1
    98    46   159    1
    99    47    55    1
   100    48   113    2
   101    49    92    1
   102    49   135    1
   103    50    78    1
   104    50   104    1
   105    50    66    1
   106    50   160    1
   107    51    59    1
   108    51   103    1
   109    51    73    1
   110    51   161    1
   111    52    67    1
   112    52    81    1
   113    52    96    1
   114    52   162    1
   115    53   163    1
   116    54   112    1
   117    55    94    1
   118    55   107    1
   119    55   164    1
   120    56    57    2
   121    57   117    1
   122    59    86    1
   123    59   165    1
   124    60   120    1
   125    60    90    1
   126    60   166    1
   127    61   113    1
   128    61   167    1
   129    62   121    1
   130    63    67    1
   131    63   119    1
   132    64   109    1
   133    65   106    1
   134    65   168    1
   135    66    68    1
   136    67   115    1
   137    67   169    1
   138    68   122    1
   139    68   170    1
   140    69   135    2
   141    70   110    1
   142    70   138    2
   143    70   128    1
   144    71   135    1
   145    72   126    1
   146    72   171    1
   147    73    76    1
   148    74   112    1
   149    75   124    1
   150    76   120    1
   151    76   116    1
   152    76   172    1
   153    78   115    1
   154    78   173    1
   155    79   119    1
   156    79    84    2
   157    79   111    1
   158    80   109    1
   159    81    97    1
   160    81   174    1
   161    82   132    1
   162    85   140    1
   163    85   175    1
   164    86    95    1
   165    86   176    1
   166    89   124    1
   167    89    92    1
   168    89   107    1
   169    89   177    1
   170    90   178    1
   171    91   131    1
   172    91   127    1
   173    92   179    1
   174    92   180    1
   175    93   181    1
   176    94   106    1
   177    94   137    1
   178    94   182    1
   179    95    98    1
   180    95   183    1
   181    97   184    1
   182    98   103    1
   183    99   185    1
   184   100   186    1
   185   101   109    1
   186   101   187    1
   187   102   140    1
   188   102   188    1
   189   103   139    1
   190   103   189    1
   191   104   190    1
   192   104   191    1
   193   106   124    1
   194   106   192    1
   195   109   130    1
   196   110   116    1
   197   110   193    1
   198   111   194    1
   199   114   195    1
   200   119   196    1
   201   120   197    1
   202   121   137    1
   203   124   198    1
   204   125   126    1
   205   125   199    1
   206   125   200    1
   207   126   201    1
   208   128   202    1
   209   131   139    1
   210   137   203    1
   211   139   204    1
   212   139   205    1
   213   140   206    1
