@<TRIPOS>MOLECULE
1FQ9_LIGAND_1.pdb
 226 233 0 0 0
SMALL
GASTEIGER

@<TRIPOS>ATOM
      1  S         86.4640   27.4680  104.2880 S.O2  303  IDS303      0.2080
      2  C3        71.2300   15.4250   97.5790 C.3   308  SGN308      0.1055
      3  C3        78.0320   21.1430   99.6090 C.3   306  SGN306      0.1055
      4  C4        83.9960   28.4400  108.2850 C.3   303  IDS303      0.1267
      5  O3        79.3980   21.5130   99.5810 O.3   306  SGN306     -0.3874
      6  O6        71.4620   15.7730   93.3590 O.3   308  SGN308     -0.2131
      7  C4        91.7540   27.4650  111.6520 C.3   301  UAP301      0.0128
      8  O4S       72.9740   17.6920   92.3350 O.2   308  SGN308     -0.1181
      9  C5        91.5990   28.9110  111.2020 C.3   301  UAP301      0.1603
     10  O3S       86.3250   31.8940  106.1060 O.3   302  SGN302     -0.2626
     11  S1        70.7960   12.0770   99.0780 S.3   308  SGN308     -0.0198
     12  O2S       90.3790   27.2940  116.5210 O.2   301  UAP301     -0.1181
     13  N         80.1540   22.2100  108.2040 N.3   304  SGN304     -0.1845
     14  O4        72.5250   16.9610   96.1520 O.3   308  SGN308     -0.3401
     15  O1        80.5070   21.8290  105.5970 O.3   304  SGN304     -0.3406
     16  O6        73.6190   22.3340  101.3530 O.3   306  SGN306     -0.2131
     17  O3        72.4170   15.0230   98.2350 O.3   308  SGN308     -0.3874
     18  C3        90.9460   27.1120  112.9250 C.3   301  UAP301      0.0914
     19  O3S       80.6980   20.3660  109.9530 O.3   304  SGN304     -0.2626
     20  S         71.9640   20.9710   93.8930 S.O2  307  IDU307      0.2080
     21  C4        80.0900   20.9150  104.5940 C.3   305  IDS305      0.1267
     22  C4        75.1120   19.3480   96.8860 C.3   307  IDU307      0.1267
     23  O4S       71.5590   20.7390  101.0170 O.2   306  SGN306     -0.1181
     24  C6        75.2790   17.5080   98.5950 C.2   307  IDU307      0.3367
     25  C2        70.2800   14.2380   97.4280 C.3   308  SGN308      0.1076
     26  C2        77.3990   21.4410   98.2680 C.3   306  SGN306      0.1078
     27  S1        79.6920   20.7190  109.0040 S.3   304  SGN304     -0.0198
     28  O3S       89.1430   29.3050  116.1740 O.2   301  UAP301     -0.1181
     29  O3S       70.6070   21.0500   93.4190 O.3   307  IDU307     -0.2311
     30  O5        69.2750   15.1920   95.4320 O.3   308  SGN308     -0.3416
     31  O3        74.7720   20.0600   94.6230 O.3   307  IDU307     -0.3863
     32  O1        68.1820   15.4580   97.5500 O.3   308  SGN308     -0.3656
     33  O6S       85.7110   31.9610  113.2960 O.2   302  SGN302     -0.1181
     34  S         76.7940   23.1090  106.3370 S.O2  305  IDS305      0.2080
     35  O4S       86.9310   21.8990  106.9920 O.2   304  SGN304     -0.1181
     36  O1S       79.5240   19.6690  108.0470 O.3   304  SGN304     -0.2626
     37  O1S       87.3520   26.3500  104.1830 O.2   303  IDS303     -0.1181
     38  O5S       73.5240   15.4890   91.7540 O.2   308  SGN308     -0.1181
     39  C1        89.6950   29.3980  112.6820 C.3   301  UAP301      0.1914
     40  O3        81.7110   24.5140  108.5700 O.3   304  SGN304     -0.3874
     41  O5        72.9760   18.3820   98.0360 O.3   307  IDU307     -0.3314
     42  O2        85.9430   27.5670  105.9580 O.3   303  IDS303     -0.2047
     43  O1S       88.2530   30.6980  105.3840 O.3   302  SGN302     -0.2626
     44  O5S       87.2730   23.4790  105.2790 O.2   304  SGN304     -0.1181
     45  O2        72.1300   19.3790   94.6350 O.3   307  IDU307     -0.2047
     46  C2        90.2190   28.2870  113.5820 C.3   301  UAP301      0.1660
     47  O1        85.3360   28.7970  108.6070 O.3   302  SGN302     -0.3406
     48  O61       93.4220   28.5540  109.6730 O.2   301  UAP301     -0.2481
     49  O6        86.5700   29.5580  113.7900 O.3   302  SGN302     -0.2131
     50  C5        75.8010   21.5510  100.6720 C.3   306  SGN306      0.1159
     51  C4        83.1270   23.8560  106.7330 C.3   304  SGN304      0.1176
     52  C2        77.9020   22.1060  104.1840 C.3   305  IDS305      0.1684
     53  N         70.0340   13.6570   98.7300 N.3   308  SGN308     -0.1845
     54  O2        91.0740   28.8250  114.5420 O.3   301  UAP301     -0.2048
     55  C1        85.5440   30.0120  109.2930 C.3   302  SGN302      0.1795
     56  O5S       71.9020   21.5920  103.1870 O.2   306  SGN306     -0.1181
     57  S2        72.5460   21.0700  102.0130 S.O2  306  SGN306      0.2076
     58  O3S       72.1910   12.0990   98.6830 O.3   308  SGN308     -0.2626
     59  C3        81.7470   23.7550  107.3810 C.3   304  SGN304      0.1055
     60  C3        83.8180   28.3550  106.7530 C.3   303  IDS303      0.1176
     61  O62       92.5620   30.5670  109.8360 O.3   301  UAP301     -0.4788
     62  O2S       88.4170   32.2790  107.1360 O.3   302  SGN302     -0.2626
     63  O5        79.7690   22.6610  102.7580 O.3   305  IDS305     -0.3314
     64  O2S       78.8250   20.0690   94.9730 O.3   306  SGN306     -0.2626
     65  O3        89.2550   30.1790  109.5430 O.3   302  SGN302     -0.3874
     66  O5        75.2840   21.8380   99.3630 O.3   306  SGN306     -0.3413
     67  C1        78.3430   22.5980  102.7880 C.3   305  IDS305      0.1916
     68  C1        75.9400   21.0200   98.4160 C.3   306  SGN306      0.1795
     69  O5S       84.6890   30.8050  115.0730 O.2   302  SGN302     -0.1181
     70  C6        83.4600   27.0210  110.3070 C.2   303  IDS303      0.3367
     71  O4S       86.8880   31.6390  115.3320 O.3   302  SGN302     -0.2311
     72  C4        71.5680   15.8620   96.1550 C.3   308  SGN308      0.1176
     73  O4        83.3670   25.2050  106.3930 O.3   304  SGN304     -0.3401
     74  O1S       91.3310   29.3560  117.0280 O.3   301  UAP301     -0.2311
     75  O4        88.5830   28.8240  111.9970 O.3   302  SGN302     -0.3401
     76  C1        84.5360   25.8250  106.8600 C.3   303  IDS303      0.1916
     77  O3S       85.2860   27.2700  103.4680 O.3   303  IDS303     -0.2311
     78  C4        77.2880   21.9520  100.6770 C.3   306  SGN306      0.1176
     79  C6        81.8350   21.2210  102.7620 C.2   305  IDS305      0.3367
     80  O1S       78.1550   22.2930   95.4310 O.3   306  SGN306     -0.2626
     81  C3        78.5700   20.7980  104.6510 C.3   305  IDS305      0.1176
     82  S2        73.0690   16.3450   92.8140 S.O2  308  SGN308      0.2076
     83  O3S       76.5360   24.4710  106.6670 O.3   305  IDS305     -0.2311
     84  O61       82.2390   20.0450  102.7890 O.2   305  IDS305     -0.2480
     85  C1        72.2790   18.2400   96.7840 C.3   307  IDU307      0.1916
     86  C2        81.5010   22.2960  107.7180 C.3   304  SGN304      0.1078
     87  O2S       70.7020   11.8610  100.4910 O.3   308  SGN308     -0.2626
     88  O1S       70.1000   11.0350   98.3590 O.3   308  SGN308     -0.2626
     89  C5        86.2520   29.0300  111.4330 C.3   302  SGN302      0.1159
     90  O3        82.4790   28.2020  106.4200 O.3   303  IDS303     -0.3863
     91  S2        86.8530   22.1310  105.5880 S.O2  304  SGN304      0.2076
     92  C6        85.7400   28.8780  112.8660 C.3   302  SGN302      0.1076
     93  O62       75.7910   17.7220   99.7140 O.3   307  IDU307     -0.4788
     94  C2        86.9800   30.4690  109.0450 C.3   302  SGN302      0.1078
     95  C1        81.5580   21.4360  106.4500 C.3   304  SGN304      0.1795
     96  O2        78.0610   23.0990  105.1520 O.3   305  IDS305     -0.2047
     97  O3        78.1400   19.7650  103.8660 O.3   305  IDS305     -0.3863
     98  O5        82.8250   21.6470  105.8160 O.3   304  SGN304     -0.3413
     99  C1        68.9600   14.5970   96.7230 C.3   308  SGN308      0.1762
    100  C5        74.3970   18.6090   98.0410 C.3   307  IDU307      0.1863
    101  N         78.0170   20.5050   97.3680 N.3   306  SGN306     -0.1845
    102  C3        74.3320   19.1610   95.5820 C.3   307  IDU307      0.1176
    103  C5        83.1090   23.0160  105.4620 C.3   304  SGN304      0.1159
    104  C6        75.0050   22.3350  101.7110 C.3   306  SGN306      0.1076
    105  O61       75.5610   16.5370   97.8710 O.2   307  IDU307     -0.2480
    106  C3        87.9770   29.6470  109.8160 C.3   302  SGN302      0.1055
    107  O5        85.3200   29.8790  110.7110 O.3   302  SGN302     -0.3413
    108  O2S       72.2600   21.9830   94.8670 O.2   307  IDU307     -0.1181
    109  S1        78.8430   21.1230   95.9360 S.3   306  SGN306     -0.0198
    110  C5        83.8130   27.0510  108.8350 C.3   303  IDS303      0.1863
    111  O62       82.5160   22.1880  102.3870 O.3   305  IDS305     -0.4788
    112  S         90.4390   28.6800  116.1680 S.O2  301  UAP301      0.2080
    113  C6        92.6010   29.3620  110.1480 C.2   301  UAP301      0.3341
    114  O3        89.9930   26.1610  112.6130 O.3   301  UAP301     -0.3889
    115  O4        77.8510   21.6190  101.9190 O.3   306  SGN306     -0.3401
    116  O5        84.5560   25.9930  108.2810 O.3   303  IDS303     -0.3314
    117  O6S       73.3330   19.9050  102.3800 O.3   306  SGN306     -0.2311
    118  O2S       87.1490   28.6850  103.9610 O.2   303  IDS303     -0.1181
    119  C5        80.4600   21.5460  103.2650 C.3   305  IDS305      0.1863
    120  C2        84.6270   27.1890  106.1470 C.3   303  IDS303      0.1684
    121  S1        87.5820   31.3010  106.5090 S.3   302  SGN302     -0.0198
    122  O1        75.2480   20.7460   97.2290 O.3   306  SGN306     -0.3406
    123  O2S       75.6420   22.4730  105.7880 O.2   305  IDS305     -0.1181
    124  C4        87.6480   29.6440  111.3120 C.3   302  SGN302      0.1176
    125  C6        70.5500   16.7050   93.9750 C.3   308  SGN308      0.1076
    126  C5        70.2620   16.2810   95.4220 C.3   308  SGN308      0.1159
    127  O6S       87.6660   21.2000  104.8550 O.3   304  SGN304     -0.2311
    128  O62       84.3040   26.5090  111.0720 O.3   303  IDS303     -0.4788
    129  O5        90.7090   29.8450  111.7720 O.3   301  UAP301     -0.3340
    130  O3S       80.2070   21.4470   96.2680 O.3   306  SGN306     -0.2626
    131  O6        85.1900   21.8940  105.0710 O.3   304  SGN304     -0.2131
    132  O6S       73.9950   16.2510   93.9190 O.3   308  SGN308     -0.2311
    133  O2S       78.4690   20.9550  109.6710 O.3   304  SGN304     -0.2626
    134  O1S       72.8900   21.0480   92.8100 O.2   307  IDU307     -0.1181
    135  S2        85.9410   31.0730  114.4140 S.O2  302  SGN302      0.2076
    136  O1S       77.2800   22.4010  107.4540 O.2   305  IDS305     -0.1181
    137  N         87.2660   30.0690  107.6980 N.3   302  SGN302     -0.1845
    138  O61       82.3450   27.4430  110.6750 O.2   303  IDS303     -0.2480
    139  C6        84.4370   23.0550  104.7390 C.3   304  SGN304      0.1076
    140  C2        72.8300   19.3540   95.8580 C.3   307  IDU307      0.1684
    141 H          70.7855   16.2103   98.1539 H     308  SGN308      0.0638
    142 H          77.9673   20.0983   99.8309 H     306  SGN306      0.0638
    143 H          83.3036   29.1547  108.6784 H     303  IDS303      0.0656
    144 H          79.4727   22.4591   99.3807 H     306  SGN306      0.2100
    145 H          91.4254   26.8282  110.8574 H     301  UAP301      0.0321
    146 H          92.7872   27.3243  111.8919 H     301  UAP301      0.0321
    147 H          90.5331   28.8404  111.1400 H     301  UAP301      0.0715
    148 H          86.4901   32.5825  105.4429 H     302  SGN302      0.2439
    149 H          79.5303   22.3381  107.4072 H     304  SGN304      0.1485
    150 H          72.8392   14.3097   97.7311 H     308  SGN308      0.2100
    151 H          91.6750   26.7630  113.6262 H     301  UAP301      0.0622
    152 H          81.5357   20.2049  109.4913 H     304  SGN304      0.2439
    153 H          80.5391   19.9525  104.7234 H     305  IDS305      0.0656
    154 H          76.0898   18.9393   96.7386 H     307  IDU307      0.0656
    155 H          70.7575   13.5221   96.7921 H     308  SGN308      0.0554
    156 H          77.4966   22.4563   97.9448 H     306  SGN306      0.0554
    157 H          70.4516   20.3504   92.7653 H     307  IDU307      0.2469
    158 H          75.7189   19.9238   94.4624 H     307  IDU307      0.2100
    159 H          67.9998   15.0172   98.3946 H     308  SGN308      0.2125
    160 H          80.3651   19.5095  107.5910 H     304  SGN304      0.2439
    161 H          89.4072   30.2666  113.2367 H     301  UAP301      0.0939
    162 H          81.8676   25.4484  108.3620 H     304  SGN304      0.2100
    163 H          88.4343   31.3759  104.7143 H     302  SGN302      0.2439
    164 H          89.3199   27.8672  113.9824 H     301  UAP301      0.0698
    165 H          75.7116   20.5126  100.9141 H     306  SGN306      0.0648
    166 H          83.8895   23.5099  107.3992 H     304  SGN304      0.0650
    167 H          76.8626   21.8798  104.0684 H     305  IDS305      0.0699
    168 H          70.3684   14.3196   99.4297 H     308  SGN308      0.1485
    169 H          84.8429   30.7316  108.9247 H     302  SGN302      0.0927
    170 H          72.2538   12.2453   97.7262 H     308  SGN308      0.2439
    171 H          80.9999   24.1282  106.7121 H     304  SGN304      0.0638
    172 H          84.1862   29.2735  106.3460 H     303  IDS303      0.0649
    173 H          91.9227   31.1311  110.2246 H     301  UAP301      0.2951
    174 H          88.6172   32.9866  106.5034 H     302  SGN302      0.2439
    175 H          77.9066   19.8509   94.7495 H     306  SGN306      0.2439
    176 H          89.4159   30.1593  108.5866 H     302  SGN302      0.2100
    177 H          77.9821   23.5709  102.5270 H     305  IDS305      0.0939
    178 H          75.9429   20.0319   98.8266 H     306  SGN306      0.0927
    179 H          87.7230   31.8119  114.8696 H     302  SGN302      0.2469
    180 H          72.0196   15.0384   95.6425 H     308  SGN308      0.0650
    181 H          91.0085   29.2954  117.9408 H     301  UAP301      0.2469
    182 H          85.3790   25.2036  106.6407 H     303  IDS303      0.0939
    183 H          84.8529   26.4393  103.7195 H     303  IDS303      0.2469
    184 H          77.3688   23.0021  100.4879 H     306  SGN306      0.0650
    185 H          77.2392   22.0601   95.2120 H     306  SGN306      0.2439
    186 H          78.2941   20.6095  105.6675 H     305  IDS305      0.0649
    187 H          77.3383   24.8717  107.0366 H     305  IDS305      0.2469
    188 H          71.2251   18.3090   96.9558 H     307  IDU307      0.0939
    189 H          82.2334   21.9588  108.4214 H     304  SGN304      0.0554
    190 H          69.7686   11.8464  100.7545 H     308  SGN308      0.2439
    191 H          69.1678   11.0246   98.6268 H     308  SGN308      0.2439
    192 H          86.3232   28.0412  111.0303 H     302  SGN302      0.0648
    193 H          82.1470   27.3689  106.7897 H     303  IDS303      0.2100
    194 H          84.7505   29.2808  112.9260 H     302  SGN302      0.0611
    195 H          85.7441   27.8373  113.1147 H     302  SGN302      0.0611
    196 H          75.5343   18.4740  100.2106 H     307  IDU307      0.2951
    197 H          87.0523   31.5082  109.2895 H     302  SGN302      0.0554
    198 H          81.4510   20.3970  106.6824 H     304  SGN304      0.0927
    199 H          78.3893   19.9341  102.9440 H     305  IDS305      0.2100
    200 H          68.3675   13.7224   96.5527 H     308  SGN308      0.0925
    201 H          74.2889   19.3819   98.7730 H     307  IDU307      0.0742
    202 H          77.2850   19.8734   97.0429 H     306  SGN306      0.1485
    203 H          74.4963   18.1722   95.2077 H     307  IDU307      0.0649
    204 H          82.3603   23.4181  104.8119 H     304  SGN304      0.0648
    205 H          75.1254   21.8783  102.6711 H     306  SGN306      0.0611
    206 H          75.3626   23.3428  101.7472 H     306  SGN306      0.0611
    207 H          87.9454   28.6209  109.5144 H     302  SGN302      0.0638
    208 H          82.9062   26.7227  108.3716 H     303  IDS303      0.0742
    209 H          82.1485   23.0499  102.3921 H     305  IDS305      0.2951
    210 H          89.3621   26.5322  111.9765 H     301  UAP301      0.2099
    211 H          73.7701   19.5484  101.5909 H     306  SGN306      0.2469
    212 H          79.8163   20.9781  102.6263 H     305  IDS305      0.0742
    213 H          84.1459   27.0007  105.2100 H     303  IDS303      0.0699
    214 H          87.6875   30.6281  111.7302 H     302  SGN302      0.0650
    215 H          69.6341   16.7222   93.4221 H     308  SGN308      0.0611
    216 H          70.9921   17.6794   93.9764 H     308  SGN308      0.0611
    217 H          69.8564   17.1178   95.9514 H     308  SGN308      0.0648
    218 H          88.5939   21.3046  105.1175 H     304  SGN304      0.2469
    219 H          85.1247   26.2111  110.7320 H     303  IDS303      0.2951
    220 H          80.6597   21.7865   95.4801 H     306  SGN306      0.2439
    221 H          73.6964   16.8260   94.6409 H     308  SGN308      0.2469
    222 H          78.5863   21.6672  110.3190 H     304  SGN304      0.2439
    223 H          86.4643   29.5317  107.3678 H     302  SGN302      0.1485
    224 H          84.9791   23.9288  105.0349 H     304  SGN304      0.0611
    225 H          84.2683   23.0817  103.6827 H     304  SGN304      0.0611
    226 H          72.6906   20.2859   96.3650 H     307  IDU307      0.0699
@<TRIPOS>BOND
     1     1    42    1
     2     1    37    2
     3     1   118    2
     4     1    77    1
     5     2    25    1
     6     2    72    1
     7     2    17    1
     8     3    26    1
     9     3    78    1
    10     3     5    1
    11     4    47    1
    12     4    60    1
    13     4   110    1
    14     6   125    1
    15     6    82    1
    16     7    18    1
    17     7     9    1
    18     8    82    2
    19     9   113    1
    20     9   129    1
    21    10   121    1
    22    11    53    1
    23    11    88    1
    24    11    87    1
    25    11    58    1
    26    12   112    2
    27    13    86    1
    28    13    27    1
    29    14    85    1
    30    14    72    1
    31    15    95    1
    32    15    21    1
    33    16   104    1
    34    16    57    1
    35    18    46    1
    36    18   114    1
    37    19    27    1
    38    20    45    1
    39    20   134    2
    40    20   108    2
    41    20    29    1
    42    21    81    1
    43    21   119    1
    44    22   122    1
    45    22   102    1
    46    22   100    1
    47    23    57    2
    48    24   100    1
    49    24   105    2
    50    24    93    1
    51    25    99    1
    52    25    53    1
    53    26    68    1
    54    26   101    1
    55    27    36    1
    56    27   133    1
    57    28   112    2
    58    30    99    1
    59    30   126    1
    60    31   102    1
    61    32    99    1
    62    33   135    2
    63    34    96    1
    64    34   136    2
    65    34   123    2
    66    34    83    1
    67    35    91    2
    68    38    82    2
    69    39    46    1
    70    39   129    1
    71    39    75    1
    72    40    59    1
    73    41    85    1
    74    41   100    1
    75    42   120    1
    76    43   121    1
    77    44    91    2
    78    45   140    1
    79    46    54    1
    80    47    55    1
    81    48   113    2
    82    49    92    1
    83    49   135    1
    84    50    78    1
    85    50   104    1
    86    50    66    1
    87    51    59    1
    88    51   103    1
    89    51    73    1
    90    52    67    1
    91    52    81    1
    92    52    96    1
    93    54   112    1
    94    55    94    1
    95    55   107    1
    96    56    57    2
    97    57   117    1
    98    59    86    1
    99    60   120    1
   100    60    90    1
   101    61   113    1
   102    62   121    1
   103    63    67    1
   104    63   119    1
   105    64   109    1
   106    65   106    1
   107    66    68    1
   108    67   115    1
   109    68   122    1
   110    69   135    2
   111    70   110    1
   112    70   138    2
   113    70   128    1
   114    71   135    1
   115    72   126    1
   116    73    76    1
   117    74   112    1
   118    75   124    1
   119    76   120    1
   120    76   116    1
   121    78   115    1
   122    79   119    1
   123    79    84    2
   124    79   111    1
   125    80   109    1
   126    81    97    1
   127    82   132    1
   128    85   140    1
   129    86    95    1
   130    89   124    1
   131    89    92    1
   132    89   107    1
   133    91   131    1
   134    91   127    1
   135    94   106    1
   136    94   137    1
   137    95    98    1
   138    98   103    1
   139   101   109    1
   140   102   140    1
   141   103   139    1
   142   106   124    1
   143   109   130    1
   144   110   116    1
   145   121   137    1
   146   125   126    1
   147   131   139    1
   148     2   141    1
   149     3   142    1
   150     4   143    1
   151     5   144    1
   152     7   145    1
   153     7   146    1
   154     9   147    1
   155    10   148    1
   156    13   149    1
   157    17   150    1
   158    18   151    1
   159    19   152    1
   160    21   153    1
   161    22   154    1
   162    25   155    1
   163    26   156    1
   164    29   157    1
   165    31   158    1
   166    32   159    1
   167    36   160    1
   168    39   161    1
   169    40   162    1
   170    43   163    1
   171    46   164    1
   172    50   165    1
   173    51   166    1
   174    52   167    1
   175    53   168    1
   176    55   169    1
   177    58   170    1
   178    59   171    1
   179    60   172    1
   180    61   173    1
   181    62   174    1
   182    64   175    1
   183    65   176    1
   184    67   177    1
   185    68   178    1
   186    71   179    1
   187    72   180    1
   188    74   181    1
   189    76   182    1
   190    77   183    1
   191    78   184    1
   192    80   185    1
   193    81   186    1
   194    83   187    1
   195    85   188    1
   196    86   189    1
   197    87   190    1
   198    88   191    1
   199    89   192    1
   200    90   193    1
   201    92   194    1
   202    92   195    1
   203    93   196    1
   204    94   197    1
   205    95   198    1
   206    97   199    1
   207    99   200    1
   208   100   201    1
   209   101   202    1
   210   102   203    1
   211   103   204    1
   212   104   205    1
   213   104   206    1
   214   106   207    1
   215   110   208    1
   216   111   209    1
   217   114   210    1
   218   117   211    1
   219   119   212    1
   220   120   213    1
   221   124   214    1
   222   125   215    1
   223   125   216    1
   224   126   217    1
   225   127   218    1
   226   128   219    1
   227   130   220    1
   228   132   221    1
   229   133   222    1
   230   137   223    1
   231   139   224    1
   232   139   225    1
   233   140   226    1
