@<TRIPOS>MOLECULE
1FQ9_LIGAND_2.pdb
 170 175 0 0 0
SMALL
GASTEIGER

@<TRIPOS>ATOM
      1  O1S       95.5540   27.0860  116.1360 O.2   301  UAP301     -0.1181
      2  C2       108.0980   34.0090  121.6860 C.3   304  SGN304      0.1078
      3  C6        99.4910   30.7090  111.7480 C.2   301  UAP301      0.3341
      4  O4S      102.7840   26.1120  120.7150 O.2   302  SGN302     -0.1181
      5  O3       115.2440   39.0530  120.8870 O.3   306  SGN306     -0.3874
      6  O6S      100.5400   25.9980  119.9660 O.2   302  SGN302     -0.1181
      7  O4       114.9460   36.4920  122.0820 O.3   306  SGN306     -0.3401
      8  O3S      112.9050   31.7360  123.9300 O.2   305  IDS305     -0.1181
      9  C1       100.0210   28.2980  114.7030 C.3   301  UAP301      0.1914
     10  C2       104.6080   28.0770  114.5250 C.3   302  SGN302      0.1078
     11  O1S      108.2740   35.6750  124.4230 O.3   304  SGN304     -0.2626
     12  C1       113.8230   35.6370  121.8280 C.3   305  IDS305      0.1916
     13  C1       105.1550   27.9270  115.9470 C.3   302  SGN302      0.1795
     14  O1S      116.0500   40.8650  118.5730 O.3   306  SGN306     -0.2626
     15  O1S      108.3340   33.1000  114.3440 O.2   303  IDS303     -0.1181
     16  S1       108.1360   34.2470  124.4460 S.3   304  SGN304     -0.0198
     17  O61      110.3120   38.1900  119.7230 O.2   305  IDS305     -0.2480
     18  O6       106.9590   35.4870  117.6730 O.3   304  SGN304     -0.2131
     19  C2        98.8070   28.7030  115.5130 C.3   301  UAP301      0.1660
     20  O1       110.1770   35.2720  121.5130 O.3   304  SGN304     -0.3406
     21  O5S      101.9150   24.1010  119.8290 O.3   302  SGN302     -0.2311
     22  O62      100.0470   30.0130  110.8710 O.3   301  UAP301     -0.4788
     23  O5        99.9880   28.8250  113.3810 O.3   301  UAP301     -0.3340
     24  C6       116.8350   34.3800  121.2460 C.3   306  SGN306      0.1076
     25  S2       106.1770   36.0480  116.2140 S.O2  304  SGN304      0.2076
     26  C1       118.5900   37.5140  120.1160 C.3   306  SGN306      0.1762
     27  C3        98.3700   30.1760  115.4970 C.3   301  UAP301      0.0914
     28  C6       111.2510   37.3860  119.5980 C.2   305  IDS305      0.3367
     29  O5S      116.0920   31.6980  119.5600 O.2   306  SGN306     -0.1181
     30  O61       98.9700   31.8200  111.5220 O.2   301  UAP301     -0.2481
     31  O5       113.0370   35.9940  120.6890 O.3   305  IDS305     -0.3314
     32  O1       119.3440   37.9010  121.2600 O.3   306  SGN306     -0.3656
     33  S2       117.3650   31.9740  120.1640 S.O2  306  SGN306      0.2076
     34  C3       103.3140   28.8750  114.5310 C.3   302  SGN302      0.1055
     35  O2S      107.6940   31.5080  112.7350 O.2   303  IDS303     -0.1181
     36  N        108.6710   33.5440  122.9250 N.3   304  SGN304     -0.1845
     37  C5       102.8580   27.9730  116.7930 C.3   302  SGN302      0.1159
     38  C3       108.4810   32.9510  120.6460 C.3   304  SGN304      0.1055
     39  C2       108.0380   30.8970  116.5000 C.3   303  IDS303      0.1684
     40  S1       117.4490   40.9460  118.9100 S.3   306  SGN306     -0.0198
     41  O3       108.6010   29.3800  118.2690 O.3   303  IDS303     -0.3863
     42  O2       113.1030   34.2880  123.8380 O.3   305  IDS305     -0.2047
     43  O3S       97.4890   25.7870  116.4220 O.2   301  UAP301     -0.1181
     44  O1S      113.3250   32.6390  121.8310 O.2   305  IDS305     -0.1181
     45  O1S      105.8040   28.7190  111.1910 O.3   302  SGN302     -0.2626
     46  O2S      106.1190   26.7400  112.4440 O.3   302  SGN302     -0.2626
     47  O2S      118.2580   40.6080  117.7800 O.3   306  SGN306     -0.2626
     48  C1       108.7580   35.3710  121.3620 C.3   304  SGN304      0.1795
     49  O3S      117.7720   42.2700  119.3800 O.3   306  SGN306     -0.2626
     50  N        105.5650   28.8730  113.7950 N.3   302  SGN302     -0.1845
     51  O3S      106.7700   33.8960  124.6670 O.3   304  SGN304     -0.2626
     52  O4       101.1130   28.7990  115.4190 O.3   302  SGN302     -0.3401
     53  O6       102.3970   26.0100  118.1380 O.3   302  SGN302     -0.2131
     54  O3       102.8180   28.9970  113.2100 O.3   302  SGN302     -0.3874
     55  C2       117.3640   38.4310  119.9810 C.3   306  SGN306      0.1076
     56  C3       116.3480   38.1900  121.0870 C.3   306  SGN306      0.1055
     57  N        117.8220   39.7790  120.1710 N.3   306  SGN306     -0.1845
     58  C5       111.8940   36.7950  120.8530 C.3   305  IDS305      0.1863
     59  O5       106.1760   31.9380  117.6720 O.3   303  IDS303     -0.3314
     60  S         96.9360   27.1060  116.4210 S.O2  301  UAP301      0.2080
     61  O5S      104.7560   35.9060  116.3950 O.2   304  SGN304     -0.1181
     62  O2        97.7160   27.9470  115.1110 O.3   301  UAP301     -0.2048
     63  C1       107.5180   32.1400  117.2520 C.3   303  IDS303      0.1916
     64  S        108.3520   31.7170  113.9950 S.O2  303  IDS303      0.2080
     65  O61      104.2490   30.0760  119.8920 O.2   303  IDS303     -0.2480
     66  C4       106.2780   29.3940  117.5820 C.3   303  IDS303      0.1267
     67  C3       111.6070   36.1910  123.2690 C.3   305  IDS305      0.1176
     68  O4S      106.5160   37.4220  116.0010 O.2   304  SGN304     -0.1181
     69  S1       106.3620   28.1490  112.3920 S.3   302  SGN302     -0.0198
     70  S2       101.8890   25.5360  119.7510 S.O2  302  SGN302      0.2076
     71  O3       111.7710   37.3660  123.9580 O.3   305  IDS305     -0.3863
     72  C4       102.3220   28.0990  115.3740 C.3   302  SGN302      0.1176
     73  O2S      108.9540   33.6830  125.4650 O.3   304  SGN304     -0.2626
     74  O3S      109.6940   31.1890  113.9980 O.3   303  IDS303     -0.2311
     75  C3       107.7640   29.5470  117.1850 C.3   303  IDS303      0.1176
     76  O4S      118.4320   31.4040  119.3910 O.2   306  SGN306     -0.1181
     77  S        112.5940   32.7920  123.0380 S.O2  305  IDS305      0.2080
     78  C6       104.4190   30.5830  118.7810 C.2   303  IDS303      0.3367
     79  C6       108.3780   35.3530  117.6610 C.3   304  SGN304      0.1076
     80  O62      103.5400   31.2070  118.1560 O.3   303  IDS303     -0.4788
     81  O2S      111.2020   32.8490  122.7770 O.3   305  IDS305     -0.2311
     82  O62      111.5450   36.8400  118.5100 O.3   305  IDS305     -0.4788
     83  C5        99.4370   30.1090  113.1480 C.3   301  UAP301      0.1603
     84  O5       118.1360   36.1440  120.2060 O.3   306  SGN306     -0.3416
     85  O4       108.4140   32.4610  118.3000 O.3   304  SGN304     -0.3401
     86  O2       107.4660   30.8480  115.2330 O.3   303  IDS303     -0.2047
     87  C5       105.8160   30.6920  118.2390 C.3   303  IDS303      0.1863
     88  C5       108.7740   34.7760  118.9970 C.3   304  SGN304      0.1159
     89  O2S       97.1760   27.8010  117.6620 O.3   301  UAP301     -0.2311
     90  O6       117.5560   33.7180  120.2300 O.3   306  SGN306     -0.2131
     91  O3       107.8340   31.7330  120.9610 O.3   304  SGN304     -0.3874
     92  C4        98.6550   30.9350  114.1710 C.3   301  UAP301      0.0128
     93  O3S      107.7810   28.3950  112.4610 O.3   302  SGN302     -0.2626
     94  C4       115.9090   36.7230  121.0370 C.3   306  SGN306      0.1176
     95  O5       108.4020   35.7400  120.0170 O.3   304  SGN304     -0.3413
     96  O3        99.0180   30.8080  116.5560 O.3   301  UAP301     -0.3889
     97  O5       104.1360   27.2840  116.7580 O.3   302  SGN302     -0.3413
     98  C2       112.9830   35.5130  123.1270 C.3   305  IDS305      0.1684
     99  C4       110.8810   36.4470  121.9340 C.3   305  IDS305      0.1267
    100  C4       108.0410   33.4470  119.2740 C.3   304  SGN304      0.1176
    101  O1       105.4680   29.2400  116.4110 O.3   302  SGN302     -0.3406
    102  C6       101.8530   27.2160  117.6500 C.3   302  SGN302      0.1076
    103  C5       117.1700   35.8610  121.2630 C.3   306  SGN306      0.1159
    104  O6S      106.6260   35.2260  115.1130 O.3   304  SGN304     -0.2311
    105  O6S      117.3850   31.4670  121.5130 O.3   306  SGN306     -0.2311
    106 H         107.0365   34.1405  121.7146 H     304  SGN304      0.0554
    107 H         115.5437   39.9749  120.9224 H     306  SGN306      0.2100
    108 H         100.0679   27.2365  114.5771 H     301  UAP301      0.0939
    109 H         104.4404   27.1084  114.1024 H     302  SGN302      0.0554
    110 H         109.2036   35.9076  124.2726 H     304  SGN304      0.2439
    111 H         114.2092   34.6770  121.5558 H     305  IDS305      0.0939
    112 H         106.0368   27.3229  115.9947 H     302  SGN302      0.0927
    113 H         115.8445   39.9708  118.2584 H     306  SGN306      0.2439
    114 H          99.1312   28.5272  116.5174 H     301  UAP301      0.0698
    115 H         101.6368   23.8202  120.7148 H     302  SGN302      0.2469
    116 H         100.4221   29.1849  111.0982 H     301  UAP301      0.2951
    117 H         115.7867   34.2589  121.0689 H     306  SGN306      0.0611
    118 H         117.1030   33.9555  122.1909 H     306  SGN306      0.0611
    119 H         119.2289   37.6006  119.2621 H     306  SGN306      0.0925
    120 H          97.3043   30.1950  115.5913 H     301  UAP301      0.0622
    121 H         118.7882   37.8321  122.0520 H     306  SGN306      0.2125
    122 H         103.4727   29.8574  114.9241 H     302  SGN302      0.0638
    123 H         109.6770   33.7007  122.8636 H     304  SGN304      0.1485
    124 H         103.0023   28.9425  117.2221 H     302  SGN302      0.0648
    125 H         109.5383   32.7864  120.6449 H     304  SGN304      0.0638
    126 H         109.1006   31.0200  116.4750 H     303  IDS303      0.0699
    127 H         109.5227   29.4823  117.9846 H     303  IDS303      0.2100
    128 H         104.8504   28.5435  111.1626 H     302  SGN302      0.2439
    129 H         105.1643   26.5746  112.3976 H     302  SGN302      0.2439
    130 H         118.0304   39.7159  117.4746 H     306  SGN306      0.2439
    131 H         108.4114   36.1256  122.0368 H     304  SGN304      0.0927
    132 H         117.2167   42.4858  120.1455 H     306  SGN306      0.2439
    133 H         106.2970   29.1429  114.4521 H     302  SGN302      0.1485
    134 H         106.2195   34.2839  123.9689 H     304  SGN304      0.2439
    135 H         102.6683   28.1138  112.8380 H     302  SGN302      0.2100
    136 H         116.9129   38.2465  119.0284 H     306  SGN306      0.0554
    137 H         116.7730   38.3920  122.0480 H     306  SGN306      0.0638
    138 H         117.4091   40.1230  121.0380 H     306  SGN306      0.1485
    139 H         112.4308   37.6056  121.2998 H     305  IDS305      0.0742
    140 H         107.4882   32.9912  116.6044 H     303  IDS303      0.0939
    141 H         106.1844   28.5475  118.2297 H     303  IDS303      0.0656
    142 H         110.9750   35.5113  123.8014 H     305  IDS305      0.0649
    143 H         112.3470   37.9600  123.4517 H     305  IDS305      0.2100
    144 H         102.1741   27.1286  114.9481 H     302  SGN302      0.0650
    145 H         109.8798   33.9259  125.3078 H     304  SGN304      0.2439
    146 H         110.2221   31.6444  113.3238 H     303  IDS303      0.2469
    147 H         107.9727   28.7702  116.4793 H     303  IDS303      0.0649
    148 H         108.8369   36.3096  117.5226 H     304  SGN304      0.0611
    149 H         108.6964   34.7190  116.8600 H     304  SGN304      0.0611
    150 H         103.7322   31.5694  117.3136 H     303  IDS303      0.2951
    151 H         110.7204   32.9535  123.6125 H     305  IDS305      0.2469
    152 H         112.2631   36.2397  118.4661 H     305  IDS305      0.2951
    153 H         100.1814   29.8759  113.8804 H     301  UAP301      0.0715
    154 H         106.4791   30.7679  119.0753 H     303  IDS303      0.0742
    155 H         109.8259   34.5801  119.0010 H     304  SGN304      0.0648
    156 H          96.7391   27.3278  118.3873 H     301  UAP301      0.2469
    157 H         106.8736   31.8688  120.9653 H     304  SGN304      0.2100
    158 H          99.2207   31.8141  114.3994 H     301  UAP301      0.0321
    159 H          97.7070   31.1638  113.7306 H     301  UAP301      0.0321
    160 H         108.2160   27.9971  111.6907 H     302  SGN302      0.2439
    161 H         115.4586   36.4753  120.0986 H     306  SGN306      0.0650
    162 H          99.9775   30.7623  116.4215 H     301  UAP301      0.2099
    163 H         113.5575   36.2470  123.6525 H     305  IDS305      0.0699
    164 H         110.1935   37.2537  122.0808 H     305  IDS305      0.0656
    165 H         106.9833   33.6031  119.2304 H     304  SGN304      0.0650
    166 H         100.9891   26.9940  117.0590 H     302  SGN302      0.0611
    167 H         101.5936   27.8308  118.4864 H     302  SGN302      0.0611
    168 H         117.5783   36.1037  122.2218 H     306  SGN306      0.0648
    169 H         107.5839   35.3303  115.0013 H     304  SGN304      0.2469
    170 H         116.6579   31.8633  122.0182 H     306  SGN306      0.2469
@<TRIPOS>BOND
     1     1    60    2
     2     2    48    1
     3     2    38    1
     4     2    36    1
     5     3    83    1
     6     3    30    2
     7     3    22    1
     8     4    70    2
     9     5    56    1
    10     6    70    2
    11     7    12    1
    12     7    94    1
    13     8    77    2
    14     9    19    1
    15     9    23    1
    16     9    52    1
    17    10    13    1
    18    10    34    1
    19    10    50    1
    20    11    16    1
    21    12    98    1
    22    12    31    1
    23    13   101    1
    24    13    97    1
    25    14    40    1
    26    15    64    2
    27    16    36    1
    28    16    73    1
    29    16    51    1
    30    17    28    2
    31    18    79    1
    32    18    25    1
    33    19    27    1
    34    19    62    1
    35    20    48    1
    36    20    99    1
    37    21    70    1
    38    23    83    1
    39    24   103    1
    40    24    90    1
    41    25    68    2
    42    25    61    2
    43    25   104    1
    44    26    55    1
    45    26    32    1
    46    26    84    1
    47    27    92    1
    48    27    96    1
    49    28    58    1
    50    28    82    1
    51    29    33    2
    52    31    58    1
    53    33    90    1
    54    33    76    2
    55    33   105    1
    56    34    72    1
    57    34    54    1
    58    35    64    2
    59    37    72    1
    60    37   102    1
    61    37    97    1
    62    38   100    1
    63    38    91    1
    64    39    63    1
    65    39    75    1
    66    39    86    1
    67    40    57    1
    68    40    47    1
    69    40    49    1
    70    41    75    1
    71    42    98    1
    72    42    77    1
    73    43    60    2
    74    44    77    2
    75    45    69    1
    76    46    69    1
    77    48    95    1
    78    50    69    1
    79    52    72    1
    80    53   102    1
    81    53    70    1
    82    55    56    1
    83    55    57    1
    84    56    94    1
    85    58    99    1
    86    59    63    1
    87    59    87    1
    88    60    62    1
    89    60    89    1
    90    63    85    1
    91    64    86    1
    92    64    74    1
    93    65    78    2
    94    66   101    1
    95    66    75    1
    96    66    87    1
    97    67    98    1
    98    67    99    1
    99    67    71    1
   100    69    93    1
   101    77    81    1
   102    78    87    1
   103    78    80    1
   104    79    88    1
   105    83    92    1
   106    84   103    1
   107    85   100    1
   108    88   100    1
   109    88    95    1
   110    94   103    1
   111     2   106    1
   112     5   107    1
   113     9   108    1
   114    10   109    1
   115    11   110    1
   116    12   111    1
   117    13   112    1
   118    14   113    1
   119    19   114    1
   120    21   115    1
   121    22   116    1
   122    24   117    1
   123    24   118    1
   124    26   119    1
   125    27   120    1
   126    32   121    1
   127    34   122    1
   128    36   123    1
   129    37   124    1
   130    38   125    1
   131    39   126    1
   132    41   127    1
   133    45   128    1
   134    46   129    1
   135    47   130    1
   136    48   131    1
   137    49   132    1
   138    50   133    1
   139    51   134    1
   140    54   135    1
   141    55   136    1
   142    56   137    1
   143    57   138    1
   144    58   139    1
   145    63   140    1
   146    66   141    1
   147    67   142    1
   148    71   143    1
   149    72   144    1
   150    73   145    1
   151    74   146    1
   152    75   147    1
   153    79   148    1
   154    79   149    1
   155    80   150    1
   156    81   151    1
   157    82   152    1
   158    83   153    1
   159    87   154    1
   160    88   155    1
   161    89   156    1
   162    91   157    1
   163    92   158    1
   164    92   159    1
   165    93   160    1
   166    94   161    1
   167    96   162    1
   168    98   163    1
   169    99   164    1
   170   100   165    1
   171   102   166    1
   172   102   167    1
   173   103   168    1
   174   104   169    1
   175   105   170    1
