@<TRIPOS>MOLECULE
1G5N_LIGAND_1.pdb
 112 115 0 0 0
SMALL
GASTEIGER

@<TRIPOS>ATOM
      1  O3S      -28.8360   85.3190   22.8230 O.2   803  IDS803     -0.1181
      2  C4       -37.1060   81.9990   20.4860 C.2   801  UAP801     -0.0041
      3  O6S      -33.7480   80.1900   13.0670 O.2   802  SGN802     -0.1181
      4  O5       -36.6220   82.3680   18.2010 O.2   801  UAP801     -0.4538
      5  C5       -32.6050   81.9160   17.1890 C.3   802  SGN802      0.1159
      6  O5       -23.4010   81.0480   21.7060 O.3   804  SGN804     -0.3416
      7  O2S      -37.8960   77.3330   19.6520 O.2   801  UAP801     -0.1181
      8  O6       -33.9380   81.7140   15.2220 O.3   802  SGN802     -0.2131
      9  O1       -30.2830   83.3390   18.1900 O.3   802  SGN802     -0.3406
     10  O3S      -30.3640   87.3340   17.3850 O.3   802  SGN802     -0.2626
     11  S        -29.2530   85.8020   21.4920 S.O2  803  IDS803      0.2080
     12  O3       -26.3960   79.8420   19.1230 O.3   804  SGN804     -0.3874
     13  C6       -24.2400   83.3280   21.8750 C.3   804  SGN804      0.1076
     14  O5S      -35.4100   81.9360   13.0390 O.2   802  SGN802     -0.1181
     15  O3       -34.1260   84.3150   19.6220 O.3   802  SGN802     -0.3874
     16  O62      -30.2010   80.3110   18.4510 O.2   803  IDS803     -0.2480
     17  S2       -25.2570   84.2300   24.2820 S.O2  804  SGN804      0.2076
     18  O4S      -35.7530   79.9700   14.3960 O.3   802  SGN802     -0.2311
     19  C5       -28.3950   81.8290   18.0890 C.3   803  IDS803      0.1863
     20  O1S      -30.6370   86.3060   21.5640 O.2   803  IDS803     -0.1181
     21  O61      -29.1640   80.2020   16.5210 O.3   803  IDS803     -0.4788
     22  C2       -36.2980   80.1540   19.0740 C.3   801  UAP801      0.1808
     23  O2S      -24.4190   75.5590   19.8590 O.3   804  SGN804     -0.2626
     24  O3S      -23.3410   76.7980   21.6230 O.3   804  SGN804     -0.2626
     25  O5       -31.8510   82.9050   16.4680 O.3   802  SGN802     -0.3413
     26  O5       -28.3030   81.7910   19.5220 O.3   803  IDS803     -0.3314
     27  O61      -38.0620   84.4190   20.5800 O.2   801  UAP801     -0.2417
     28  C6       -37.6020   84.0210   19.4840 C.2   801  UAP801      0.3717
     29  O6S      -25.6770   83.5960   25.5460 O.3   804  SGN804     -0.2311
     30  C1       -35.7070   81.2710   18.2270 C.3   801  UAP801      0.2340
     31  C2       -32.3200   84.6420   18.0680 C.3   802  SGN802      0.1078
     32  O4       -34.4350   81.6490   18.7580 O.3   802  SGN802     -0.3308
     33  O1S      -39.0100   77.7000   17.5500 O.2   801  UAP801     -0.1181
     34  S        -37.7700   77.9360   18.3120 S.O2  801  UAP801      0.2080
     35  C3       -25.1700   80.3670   19.5810 C.3   804  SGN804      0.1055
     36  S1       -23.4960   76.6700   20.1600 S.3   804  SGN804     -0.0198
     37  C1       -27.4390   82.7900   20.0870 C.3   803  IDS803      0.1916
     38  C4       -33.7210   82.6090   17.9770 C.3   802  SGN802      0.1186
     39  C1       -31.2320   83.9100   17.2850 C.3   802  SGN802      0.1795
     40  C4       -28.9670   83.1790   17.6520 C.3   803  IDS803      0.1267
     41  O6       -24.9270   82.9790   23.0750 O.3   804  SGN804     -0.2131
     42  O1       -22.2300   80.1950   19.8370 O.3   804  SGN804     -0.3656
     43  O4S      -24.0380   85.0270   24.5120 O.2   804  SGN804     -0.1181
     44  N        -31.7360   85.6610   18.9140 N.3   802  SGN802     -0.1845
     45  O3       -35.4570   80.5530   21.2980 O.3   801  UAP801     -0.3848
     46  C5       -24.0760   82.0960   20.9900 C.3   804  SGN804      0.1159
     47  O3       -26.7840   84.2190   17.5530 O.3   803  IDS803     -0.3863
     48  C5       -37.1010   82.7880   19.3910 C.2   801  UAP801      0.2060
     49  C2       -27.9270   84.1830   19.6900 C.3   803  IDS803      0.1684
     50  C4       -25.4190   81.5760   20.4770 C.3   804  SGN804      0.1176
     51  O2       -37.4960   79.6760   18.4650 O.3   801  UAP801     -0.2032
     52  C3       -33.1100   83.6470   18.9080 C.3   802  SGN802      0.1055
     53  S1       -31.5420   87.2960   18.2710 S.3   802  SGN802     -0.0198
     54  C1       -23.1160   79.8840   20.9140 C.3   804  SGN804      0.1762
     55  O1S      -22.1830   76.3960   19.5470 O.3   804  SGN804     -0.2626
     56  O1S      -31.3520   88.2410   19.3860 O.3   802  SGN802     -0.2626
     57  C6       -29.3250   80.7080   17.6530 C.2   803  IDS803      0.3367
     58  O2       -29.1690   84.4750   20.3270 O.3   803  IDS803     -0.2047
     59  N        -24.1460   78.1780   19.5030 N.3   804  SGN804     -0.1845
     60  C3       -28.0520   84.2880   18.1700 C.3   803  IDS803      0.1176
     61  S2       -34.7470   80.9170   13.8740 S.O2  802  SGN802      0.2076
     62  C6       -33.2030   80.9510   16.1760 C.3   802  SGN802      0.1076
     63  C3       -36.6070   80.6400   20.4860 C.3   801  UAP801      0.1116
     64  O2S      -28.3530   86.8900   21.0650 O.3   803  IDS803     -0.2311
     65  O2S      -32.7460   87.6710   17.5040 O.3   802  SGN802     -0.2626
     66  O62      -37.6160   84.7550   18.4690 O.3   801  UAP801     -0.4750
     67  O4       -26.0720   82.5960   19.7190 O.3   804  SGN804     -0.3401
     68  O5S      -26.3330   85.1130   23.7930 O.2   804  SGN804     -0.1181
     69  C2       -24.4240   79.3030   20.3750 C.3   804  SGN804      0.1076
     70  O3S      -36.6320   77.3210   17.6040 O.3   801  UAP801     -0.2311
     71 H         -37.4839   82.3832   21.3661 H     801  UAP801      0.0637
     72 H         -31.9783   81.3847   17.8744 H     802  SGN802      0.0648
     73 H         -29.5725   87.0876   17.8887 H     802  SGN802      0.2439
     74 H         -26.2269   79.0744   18.5547 H     804  SGN804      0.2100
     75 H         -24.8022   84.0704   21.3481 H     804  SGN804      0.0611
     76 H         -23.2731   83.7131   22.1233 H     804  SGN804      0.0611
     77 H         -33.7271   84.9737   20.2119 H     802  SGN802      0.2100
     78 H         -35.3137   79.3014   14.9445 H     802  SGN802      0.2469
     79 H         -27.4300   81.7048   17.6437 H     803  IDS803      0.0742
     80 H         -28.4950   80.5292   15.9524 H     803  IDS803      0.2951
     81 H         -35.5786   79.3645   19.1375 H     801  UAP801      0.0714
     82 H         -25.2830   75.7383   20.2618 H     804  SGN804      0.2439
     83 H         -24.2051   76.9782   22.0252 H     804  SGN804      0.2439
     84 H         -24.9694   83.0155   25.8673 H     804  SGN804      0.2469
     85 H         -35.5534   80.9414   17.2207 H     801  UAP801      0.1085
     86 H         -32.9830   85.1178   17.3759 H     802  SGN802      0.0554
     87 H         -24.5853   80.6668   18.7365 H     804  SGN804      0.0638
     88 H         -27.4811   82.6962   21.1520 H     803  IDS803      0.0939
     89 H         -34.3928   83.0807   17.2907 H     802  SGN802      0.0651
     90 H         -30.7042   84.5918   16.6514 H     802  SGN802      0.0927
     91 H         -29.0233   83.2269   16.5846 H     803  IDS803      0.0656
     92 H         -21.4055   80.5621   20.1924 H     804  SGN804      0.2125
     93 H         -30.8082   85.3324   19.1816 H     802  SGN802      0.1485
     94 H         -35.6680   80.8649   22.1919 H     801  UAP801      0.2103
     95 H         -23.4891   82.3934   20.1462 H     804  SGN804      0.0648
     96 H         -26.8883   84.2876   16.5911 H     803  IDS803      0.2100
     97 H         -27.2090   84.9061   20.0163 H     803  IDS803      0.0699
     98 H         -26.0377   81.2994   21.3050 H     804  SGN804      0.0650
     99 H         -32.4624   83.1691   19.6130 H     802  SGN802      0.0638
    100 H         -22.6312   79.1594   21.5343 H     804  SGN804      0.0925
    101 H         -21.8247   75.5692   19.9061 H     804  SGN804      0.2439
    102 H         -30.5604   87.9929   19.8888 H     802  SGN802      0.2439
    103 H         -25.0250   77.9411   19.0429 H     804  SGN804      0.1485
    104 H         -28.4809   85.2370   17.9243 H     803  IDS803      0.0649
    105 H         -33.8557   80.2629   16.6713 H     802  SGN802      0.0611
    106 H         -32.4287   80.3947   15.6903 H     802  SGN802      0.0611
    107 H         -37.3716   80.0059   20.8838 H     801  UAP801      0.0668
    108 H         -27.4431   86.5573   21.0180 H     803  IDS803      0.2469
    109 H         -32.8693   87.0480   16.7708 H     802  SGN802      0.2439
    110 H         -37.2675   84.4401   17.6582 H     801  UAP801      0.2955
    111 H         -25.0215   78.9782   21.2011 H     804  SGN804      0.0554
    112 H         -36.7815   76.3663   17.5196 H     801  UAP801      0.2469
@<TRIPOS>BOND
     1     1    11    2
     2     2    63    1
     3     2    48    2
     4     3    61    2
     5     4    30    1
     6     4    48    1
     7     5    38    1
     8     5    62    1
     9     5    25    1
    10     6    54    1
    11     6    46    1
    12     7    34    2
    13     8    62    1
    14     8    61    1
    15     9    39    1
    16     9    40    1
    17    10    53    1
    18    11    58    1
    19    11    20    2
    20    11    64    1
    21    12    35    1
    22    13    46    1
    23    13    41    1
    24    14    61    2
    25    15    52    1
    26    16    57    2
    27    17    41    1
    28    17    43    2
    29    17    68    2
    30    17    29    1
    31    18    61    1
    32    19    40    1
    33    19    57    1
    34    19    26    1
    35    21    57    1
    36    22    30    1
    37    22    63    1
    38    22    51    1
    39    23    36    1
    40    24    36    1
    41    25    39    1
    42    26    37    1
    43    27    28    2
    44    28    48    1
    45    28    66    1
    46    30    32    1
    47    31    39    1
    48    31    52    1
    49    31    44    1
    50    32    38    1
    51    33    34    2
    52    34    51    1
    53    34    70    1
    54    35    69    1
    55    35    50    1
    56    36    59    1
    57    36    55    1
    58    37    49    1
    59    37    67    1
    60    38    52    1
    61    40    60    1
    62    42    54    1
    63    44    53    1
    64    45    63    1
    65    46    50    1
    66    47    60    1
    67    49    60    1
    68    49    58    1
    69    50    67    1
    70    53    56    1
    71    53    65    1
    72    54    69    1
    73    59    69    1
    74     2    71    1
    75     5    72    1
    76    10    73    1
    77    12    74    1
    78    13    75    1
    79    13    76    1
    80    15    77    1
    81    18    78    1
    82    19    79    1
    83    21    80    1
    84    22    81    1
    85    23    82    1
    86    24    83    1
    87    29    84    1
    88    30    85    1
    89    31    86    1
    90    35    87    1
    91    37    88    1
    92    38    89    1
    93    39    90    1
    94    40    91    1
    95    42    92    1
    96    44    93    1
    97    45    94    1
    98    46    95    1
    99    47    96    1
   100    49    97    1
   101    50    98    1
   102    52    99    1
   103    54   100    1
   104    55   101    1
   105    56   102    1
   106    59   103    1
   107    60   104    1
   108    62   105    1
   109    62   106    1
   110    63   107    1
   111    64   108    1
   112    65   109    1
   113    66   110    1
   114    69   111    1
   115    70   112    1
