@<TRIPOS>MOLECULE
1G5N_LIGAND_1_uncharged.pdb
 102 105 0 0 0
SMALL
GASTEIGER

@<TRIPOS>ATOM
      1  O3S      -28.8360   85.3190   22.8230 O.2   803  IDS803     -0.3452
      2  C4       -37.1060   81.9990   20.4860 C.2   801  UAP801     -0.0041
      3  O6S      -33.7480   80.1900   13.0670 O.2   802  SGN802     -0.3452
      4  O5       -36.6220   82.3680   18.2010 O.2   801  UAP801     -0.4538
      5  C5       -32.6050   81.9160   17.1890 C.3   802  SGN802      0.1158
      6  O5       -23.4010   81.0480   21.7060 O.3   804  SGN804     -0.3416
      7  O2S      -37.8960   77.3330   19.6520 O.2   801  UAP801     -0.3452
      8  O6       -33.9380   81.7140   15.2220 O.3   802  SGN802     -0.2520
      9  O1       -30.2830   83.3390   18.1900 O.3   802  SGN802     -0.3406
     10  O3S      -30.3640   87.3340   17.3850 O.3   802  SGN802     -0.0534
     11  S        -29.2530   85.8020   21.4920 S.3   803  IDS803     -0.0004
     12  O3       -26.3960   79.8420   19.1230 O.3   804  SGN804     -0.3874
     13  C6       -24.2400   83.3280   21.8750 C.3   804  SGN804      0.1035
     14  O5S      -35.4100   81.9360   13.0390 O.2   802  SGN802     -0.3452
     15  O3       -34.1260   84.3150   19.6220 O.3   802  SGN802     -0.3874
     16  O62      -30.2010   80.3110   18.4510 O.2   803  IDS803     -0.2480
     17  S2       -25.2570   84.2300   24.2820 S.3   804  SGN804     -0.0008
     18  O4S      -35.7530   79.9700   14.3960 O.3   802  SGN802     -0.2682
     19  C5       -28.3950   81.8290   18.0890 C.3   803  IDS803      0.1863
     20  O1S      -30.6370   86.3060   21.5640 O.2   803  IDS803     -0.3452
     21  O61      -29.1640   80.2020   16.5210 O.3   803  IDS803     -0.4788
     22  C2       -36.2980   80.1540   19.0740 C.3   801  UAP801      0.1768
     23  O2S      -24.4190   75.5590   19.8590 O.3   804  SGN804     -0.0534
     24  O3S      -23.3410   76.7980   21.6230 O.3   804  SGN804     -0.0534
     25  O5       -31.8510   82.9050   16.4680 O.3   802  SGN802     -0.3413
     26  O5       -28.3030   81.7910   19.5220 O.3   803  IDS803     -0.3314
     27  O61      -38.0620   84.4190   20.5800 O.2   801  UAP801     -0.2417
     28  C6       -37.6020   84.0210   19.4840 C.2   801  UAP801      0.3717
     29  O6S      -25.6770   83.5960   25.5460 O.3   804  SGN804     -0.2682
     30  C1       -35.7070   81.2710   18.2270 C.3   801  UAP801      0.2339
     31  C2       -32.3200   84.6420   18.0680 C.3   802  SGN802      0.1081
     32  O4       -34.4350   81.6490   18.7580 O.3   802  SGN802     -0.3309
     33  O1S      -39.0100   77.7000   17.5500 O.2   801  UAP801     -0.3452
     34  S        -37.7700   77.9360   18.3120 S.3   801  UAP801     -0.0003
     35  C3       -25.1700   80.3670   19.5810 C.3   804  SGN804      0.1055
     36  S1       -23.4960   76.6700   20.1600 S.3   804  SGN804      0.0767
     37  C1       -27.4390   82.7900   20.0870 C.3   803  IDS803      0.1915
     38  C4       -33.7210   82.6090   17.9770 C.3   802  SGN802      0.1186
     39  C1       -31.2320   83.9100   17.2850 C.3   802  SGN802      0.1795
     40  C4       -28.9670   83.1790   17.6520 C.3   803  IDS803      0.1267
     41  O6       -24.9270   82.9790   23.0750 O.3   804  SGN804     -0.2520
     42  O1       -22.2300   80.1950   19.8370 O.3   804  SGN804     -0.3656
     43  O4S      -24.0380   85.0270   24.5120 O.2   804  SGN804     -0.3452
     44  N        -31.7360   85.6610   18.9140 N.3   802  SGN802     -0.1775
     45  O3       -35.4570   80.5530   21.2980 O.3   801  UAP801     -0.3848
     46  C5       -24.0760   82.0960   20.9900 C.3   804  SGN804      0.1158
     47  O3       -26.7840   84.2190   17.5530 O.3   803  IDS803     -0.3863
     48  C5       -37.1010   82.7880   19.3910 C.2   801  UAP801      0.2060
     49  C2       -27.9270   84.1830   19.6900 C.3   803  IDS803      0.1644
     50  C4       -25.4190   81.5760   20.4770 C.3   804  SGN804      0.1176
     51  O2       -37.4960   79.6760   18.4650 O.3   801  UAP801     -0.2421
     52  C3       -33.1100   83.6470   18.9080 C.3   802  SGN802      0.1055
     53  S1       -31.5420   87.2960   18.2710 S.3   802  SGN802      0.0767
     54  C1       -23.1160   79.8840   20.9140 C.3   804  SGN804      0.1762
     55  O1S      -22.1830   76.3960   19.5470 O.3   804  SGN804     -0.0534
     56  O1S      -31.3520   88.2410   19.3860 O.3   802  SGN802     -0.0534
     57  C6       -29.3250   80.7080   17.6530 C.2   803  IDS803      0.3367
     58  O2       -29.1690   84.4750   20.3270 O.3   803  IDS803     -0.2435
     59  N        -24.1460   78.1780   19.5030 N.3   804  SGN804     -0.1775
     60  C3       -28.0520   84.2880   18.1700 C.3   803  IDS803      0.1174
     61  S2       -34.7470   80.9170   13.8740 S.3   802  SGN802     -0.0008
     62  C6       -33.2030   80.9510   16.1760 C.3   802  SGN802      0.1035
     63  C3       -36.6070   80.6400   20.4860 C.3   801  UAP801      0.1114
     64  O2S      -28.3530   86.8900   21.0650 O.3   803  IDS803     -0.2682
     65  O2S      -32.7460   87.6710   17.5040 O.3   802  SGN802     -0.0534
     66  O62      -37.6160   84.7550   18.4690 O.3   801  UAP801     -0.4750
     67  O4       -26.0720   82.5960   19.7190 O.3   804  SGN804     -0.3401
     68  O5S      -26.3330   85.1130   23.7930 O.2   804  SGN804     -0.3452
     69  C2       -24.4240   79.3030   20.3750 C.3   804  SGN804      0.1079
     70  O3S      -36.6320   77.3210   17.6040 O.3   801  UAP801     -0.2682
     71  H        -37.4840   82.3830   21.3660 H     801  UAP801      0.0637
     72  H        -31.9780   81.3850   17.8740 H     802  SGN802      0.0648
     73  H        -26.2270   79.0740   18.5550 H     804  SGN804      0.2100
     74  H        -24.8020   84.0700   21.3480 H     804  SGN804      0.0610
     75  H        -23.2730   83.7130   22.1230 H     804  SGN804      0.0610
     76  H        -33.7270   84.9740   20.2120 H     802  SGN802      0.2100
     77  H        -27.4300   81.7050   17.6440 H     803  IDS803      0.0742
     78  H        -28.4950   80.5290   15.9520 H     803  IDS803      0.2951
     79  H        -35.5790   79.3650   19.1370 H     801  UAP801      0.0712
     80  H        -35.5530   80.9410   17.2210 H     801  UAP801      0.1085
     81  H        -32.9830   85.1180   17.3760 H     802  SGN802      0.0554
     82  H        -24.5850   80.6670   18.7360 H     804  SGN804      0.0638
     83  H        -27.4810   82.6960   21.1520 H     803  IDS803      0.0939
     84  H        -34.3930   83.0810   17.2910 H     802  SGN802      0.0651
     85  H        -30.7040   84.5920   16.6510 H     802  SGN802      0.0927
     86  H        -29.0230   83.2270   16.5850 H     803  IDS803      0.0656
     87  H        -21.4050   80.5620   20.1920 H     804  SGN804      0.2125
     88  H        -30.8080   85.3320   19.1820 H     802  SGN802      0.1487
     89  H        -35.6680   80.8650   22.1920 H     801  UAP801      0.2103
     90  H        -23.4890   82.3930   20.1460 H     804  SGN804      0.0648
     91  H        -26.8880   84.2880   16.5910 H     803  IDS803      0.2100
     92  H        -27.2090   84.9060   20.0160 H     803  IDS803      0.0698
     93  H        -26.0380   81.2990   21.3050 H     804  SGN804      0.0650
     94  H        -32.4620   83.1690   19.6130 H     802  SGN802      0.0638
     95  H        -22.6310   79.1590   21.5340 H     804  SGN804      0.0925
     96  H        -25.0250   77.9410   19.0430 H     804  SGN804      0.1487
     97  H        -28.4810   85.2370   17.9240 H     803  IDS803      0.0649
     98  H        -33.8560   80.2630   16.6710 H     802  SGN802      0.0610
     99  H        -32.4290   80.3950   15.6900 H     802  SGN802      0.0610
    100  H        -37.3720   80.0060   20.8840 H     801  UAP801      0.0668
    101  H        -37.2670   84.4400   17.6580 H     801  UAP801      0.2955
    102  H        -25.0210   78.9780   21.2010 H     804  SGN804      0.0554
@<TRIPOS>BOND
     1     1    11    2
     2     2    63    1
     3     2    48    2
     4     2    71    1
     5     3    61    2
     6     4    30    1
     7     4    48    1
     8     5    38    1
     9     5    62    1
    10     5    25    1
    11     5    72    1
    12     6    54    1
    13     6    46    1
    14     7    34    2
    15     8    62    1
    16     8    61    1
    17     9    39    1
    18     9    40    1
    19    10    53    1
    20    11    58    1
    21    11    20    2
    22    11    64    1
    23    12    35    1
    24    12    73    1
    25    13    46    1
    26    13    41    1
    27    13    74    1
    28    13    75    1
    29    14    61    2
    30    15    52    1
    31    15    76    1
    32    16    57    2
    33    17    41    1
    34    17    43    2
    35    17    68    2
    36    17    29    1
    37    18    61    1
    38    19    40    1
    39    19    57    1
    40    19    26    1
    41    19    77    1
    42    21    57    1
    43    21    78    1
    44    22    30    1
    45    22    63    1
    46    22    51    1
    47    22    79    1
    48    23    36    1
    49    24    36    1
    50    25    39    1
    51    26    37    1
    52    27    28    2
    53    28    48    1
    54    28    66    1
    55    30    32    1
    56    30    80    1
    57    31    39    1
    58    31    52    1
    59    31    44    1
    60    31    81    1
    61    32    38    1
    62    33    34    2
    63    34    51    1
    64    34    70    1
    65    35    69    1
    66    35    50    1
    67    35    82    1
    68    36    59    1
    69    36    55    1
    70    37    49    1
    71    37    67    1
    72    37    83    1
    73    38    52    1
    74    38    84    1
    75    39    85    1
    76    40    60    1
    77    40    86    1
    78    42    54    1
    79    42    87    1
    80    44    53    1
    81    44    88    1
    82    45    63    1
    83    45    89    1
    84    46    50    1
    85    46    90    1
    86    47    60    1
    87    47    91    1
    88    49    60    1
    89    49    58    1
    90    49    92    1
    91    50    67    1
    92    50    93    1
    93    52    94    1
    94    53    56    1
    95    53    65    1
    96    54    69    1
    97    54    95    1
    98    59    69    1
    99    59    96    1
   100    60    97    1
   101    62    98    1
   102    62    99    1
   103    63   100    1
   104    66   101    1
   105    69   102    1
