@<TRIPOS>MOLECULE
1G5N_LIGAND_2_uncharged.pdb
 102 105 0 0 0
SMALL
GASTEIGER

@<TRIPOS>ATOM
      1  O4S       -5.7370   55.2970  -11.1740 O.2   902  SGN902     -0.3452
      2  O6S       -4.9350   57.5690  -11.2350 O.2   902  SGN902     -0.3452
      3  O1S        0.0610   51.2340  -18.1060 O.3   902  SGN902     -0.0534
      4  C2        -1.7060   53.9540  -15.8120 C.3   902  SGN902      0.1081
      5  O2         4.3800   52.8790  -13.4860 O.3   903  IDS903     -0.2435
      6  S1         8.5040   59.8480  -18.2140 S.3   904  SGN904      0.0767
      7  O6S        5.9190   51.4590  -16.1040 O.2   904  SGN904     -0.3452
      8  O2S       -5.7870   62.0680  -14.2430 O.2   901  UAP901     -0.3452
      9  O3         1.6840   53.1570  -12.9690 O.3   903  IDS903     -0.3863
     10  O5S       -4.0910   56.0360   -9.5720 O.3   902  SGN902     -0.2682
     11  O6        -3.2690   55.6820  -12.0600 O.3   902  SGN902     -0.2520
     12  O3S       -4.6620   61.0910  -12.3520 O.2   901  UAP901     -0.3452
     13  O4S        6.7150   51.7360  -18.3680 O.2   904  SGN904     -0.3452
     14  C3         2.2670   53.7850  -14.0900 C.3   903  IDS903      0.1174
     15  O1         9.1440   57.8160  -14.9510 O.3   904  SGN904     -0.3656
     16  C5        -5.9340   57.0500  -16.6090 C.2   901  UAP901      0.2060
     17  C1        -4.6510   57.5530  -14.7230 C.3   901  UAP901      0.2339
     18  O5        -1.2390   54.8160  -13.6060 O.3   902  SGN902     -0.3413
     19  O2S       -2.1070   50.8800  -17.1160 O.3   902  SGN902     -0.0534
     20  C4         6.3470   55.8870  -15.6460 C.3   904  SGN904      0.1176
     21  C5         2.4840   56.1250  -15.0180 C.3   903  IDS903      0.1863
     22  O5         3.3860   55.3970  -15.8370 O.3   903  IDS903     -0.3314
     23  O4         5.3820   55.5750  -14.6450 O.3   904  SGN904     -0.3401
     24  O3S       -0.1790   51.1850  -15.7090 O.3   902  SGN902     -0.0534
     25  O3S        4.0710   52.0960  -10.9830 O.2   903  IDS903     -0.3452
     26  N         -1.1030   53.3300  -16.9720 N.3   902  SGN902     -0.1775
     27  C2        -4.9410   59.0390  -14.8860 C.3   901  UAP901      0.1768
     28  O1S       -7.0660   61.2450  -12.3760 O.3   901  UAP901     -0.2682
     29  O1S        9.9420   59.8860  -17.8950 O.3   904  SGN904     -0.0534
     30  C6         1.6960   57.0520  -15.9230 C.2   903  IDS903      0.3367
     31  C5         7.7040   55.3660  -15.1720 C.3   904  SGN904      0.1158
     32  O61       -6.5640   56.3250  -18.6230 O.2   901  UAP901     -0.2417
     33  C2         3.7140   54.0990  -13.7910 C.3   903  IDS903      0.1644
     34  C3         6.3990   57.4010  -15.7830 C.3   904  SGN904      0.1055
     35  S          5.1000   52.6360  -11.8960 S.3   903  IDS903     -0.0004
     36  O3         5.1840   57.8810  -16.3130 O.3   904  SGN904     -0.3874
     37  C6        -6.3380   56.0700  -17.4180 C.2   901  UAP901      0.3717
     38  C1         4.3560   54.6770  -15.0600 C.3   903  IDS903      0.1915
     39  S2         7.0830   51.8090  -16.9410 S.3   904  SGN904     -0.0008
     40  O3S        8.2750   58.9680  -19.3740 O.3   904  SGN904     -0.0534
     41  O2S        5.5970   53.9220  -11.3750 O.3   903  IDS903     -0.2682
     42  O5S        8.1860   50.8750  -16.6630 O.3   904  SGN904     -0.2682
     43  C3        -2.2810   55.3090  -16.2040 C.3   902  SGN902      0.1055
     44  O2        -5.9560   59.4350  -13.9670 O.3   901  UAP901     -0.2421
     45  O62       -6.4920   54.9200  -16.9540 O.3   901  UAP901     -0.4750
     46  S         -5.8650   61.0260  -13.2030 S.3   901  UAP901     -0.0003
     47  C4        -5.7790   58.2900  -17.1070 C.2   901  UAP901     -0.0041
     48  C6        -2.3940   56.6640  -12.6120 C.3   902  SGN902      0.1035
     49  O3        -3.2750   55.1410  -17.1890 O.3   902  SGN902     -0.3874
     50  O62        1.8490   56.9550  -17.1620 O.3   903  IDS903     -0.4788
     51  C2         7.5240   57.7610  -16.7340 C.3   904  SGN904      0.1079
     52  N          7.6200   59.1950  -16.8400 N.3   904  SGN904     -0.1775
     53  C6         7.6950   53.8500  -15.1890 C.3   904  SGN904      0.1035
     54  C1        -0.6490   54.1440  -14.7270 C.3   902  SGN902      0.1795
     55  C5        -1.7930   56.1090  -13.8960 C.3   902  SGN902      0.1158
     56  S1        -0.8190   51.5840  -16.9760 S.3   902  SGN902      0.0767
     57  O5        -5.7000   56.7900  -15.3140 O.2   901  UAP901     -0.4538
     58  C4        -2.8780   55.9600  -14.9640 C.3   902  SGN902      0.1186
     59  C4         1.5390   55.1070  -14.3660 C.3   903  IDS903      0.1267
     60  C1         8.8440   57.2110  -16.2120 C.3   904  SGN904      0.1762
     61  O2S        8.0140   61.2090  -18.5080 O.3   904  SGN904     -0.0534
     62  C3        -5.3630   59.4220  -16.3050 C.3   901  UAP901      0.1114
     63  O3        -4.3210   60.1160  -16.9570 O.3   901  UAP901     -0.3848
     64  S2        -4.5640   56.1670  -10.9640 S.3   902  SGN902     -0.0008
     65  O61        0.9320   57.8810  -15.3950 O.2   903  IDS903     -0.2480
     66  O1         0.4590   54.8660  -15.2690 O.3   902  SGN902     -0.3406
     67  O5         8.7250   55.7910  -16.0810 O.3   904  SGN904     -0.3416
     68  O6         7.6020   53.4440  -16.5530 O.3   904  SGN904     -0.2520
     69  O1S        6.2130   51.6760  -12.0050 O.2   903  IDS903     -0.3452
     70  O4        -3.3890   57.2470  -15.3140 O.3   902  SGN902     -0.3309
     71  H         -2.4900   53.3280  -15.4400 H     902  SGN902      0.0554
     72  H          2.1420   52.3210  -12.7920 H     903  IDS903      0.2100
     73  H          2.1940   53.1350  -14.9360 H     903  IDS903      0.0649
     74  H          9.2200   58.7760  -15.0630 H     904  SGN904      0.2125
     75  H         -4.6050   57.3020  -13.6840 H     901  UAP901      0.1085
     76  H          6.0980   55.4430  -16.5870 H     904  SGN904      0.0650
     77  H          2.9870   56.6940  -14.2640 H     903  IDS903      0.0742
     78  H         -0.1970   53.7780  -17.1120 H     902  SGN902      0.1487
     79  H         -4.0250   59.5530  -14.6840 H     901  UAP901      0.0712
     80  H          7.8900   55.7390  -14.1870 H     904  SGN904      0.0648
     81  H          3.7860   54.7900  -12.9780 H     903  IDS903      0.0698
     82  H          6.5610   57.8410  -14.8210 H     904  SGN904      0.0638
     83  H          5.0330   57.4850  -17.1850 H     904  SGN904      0.2100
     84  H          4.7480   53.8860  -15.6650 H     903  IDS903      0.0939
     85  H         -1.5090   55.9320  -16.6040 H     902  SGN902      0.0638
     86  H         -6.3170   54.7530  -16.0490 H     901  UAP901      0.2955
     87  H         -5.9660   58.4420  -18.1100 H     901  UAP901      0.0637
     88  H         -1.6130   56.8850  -11.9140 H     902  SGN902      0.0610
     89  H         -2.9360   57.5630  -12.8200 H     902  SGN902      0.0610
     90  H         -3.9830   54.5770  -16.8410 H     902  SGN902      0.2100
     91  H          2.4360   56.3150  -17.5130 H     903  IDS903      0.2951
     92  H          7.3190   57.3360  -17.6940 H     904  SGN904      0.0554
     93  H          6.6700   59.5630  -16.8850 H     904  SGN904      0.1487
     94  H          6.8540   53.4820  -14.6390 H     904  SGN904      0.0610
     95  H          8.5820   53.4600  -14.7360 H     904  SGN904      0.0610
     96  H         -0.2830   53.1990  -14.3840 H     902  SGN902      0.0927
     97  H         -1.0380   56.7740  -14.2610 H     902  SGN902      0.0648
     98  H         -3.6700   55.3520  -14.5790 H     902  SGN902      0.0651
     99  H          1.1840   55.4970  -13.4350 H     903  IDS903      0.0656
    100  H          9.6410   57.4350  -16.8900 H     904  SGN904      0.0925
    101  H         -6.2180   60.0570  -16.2020 H     901  UAP901      0.0668
    102  H         -3.5510   59.5330  -17.0460 H     901  UAP901      0.2103
@<TRIPOS>BOND
     1     1    64    2
     2     2    64    2
     3     3    56    1
     4     4    54    1
     5     4    43    1
     6     4    26    1
     7     4    71    1
     8     5    33    1
     9     5    35    1
    10     6    52    1
    11     6    29    1
    12     6    61    1
    13     6    40    1
    14     7    39    2
    15     8    46    2
    16     9    14    1
    17     9    72    1
    18    10    64    1
    19    11    48    1
    20    11    64    1
    21    12    46    2
    22    13    39    2
    23    14    33    1
    24    14    59    1
    25    14    73    1
    26    15    60    1
    27    15    74    1
    28    16    47    2
    29    16    37    1
    30    16    57    1
    31    17    27    1
    32    17    57    1
    33    17    70    1
    34    17    75    1
    35    18    54    1
    36    18    55    1
    37    19    56    1
    38    20    34    1
    39    20    31    1
    40    20    23    1
    41    20    76    1
    42    21    59    1
    43    21    30    1
    44    21    22    1
    45    21    77    1
    46    22    38    1
    47    23    38    1
    48    24    56    1
    49    25    35    2
    50    26    56    1
    51    26    78    1
    52    27    62    1
    53    27    44    1
    54    27    79    1
    55    28    46    1
    56    30    65    2
    57    30    50    1
    58    31    53    1
    59    31    67    1
    60    31    80    1
    61    32    37    2
    62    33    38    1
    63    33    81    1
    64    34    51    1
    65    34    36    1
    66    34    82    1
    67    35    69    2
    68    35    41    1
    69    36    83    1
    70    37    45    1
    71    38    84    1
    72    39    68    1
    73    39    42    1
    74    43    58    1
    75    43    49    1
    76    43    85    1
    77    44    46    1
    78    45    86    1
    79    47    62    1
    80    47    87    1
    81    48    55    1
    82    48    88    1
    83    48    89    1
    84    49    90    1
    85    50    91    1
    86    51    60    1
    87    51    52    1
    88    51    92    1
    89    52    93    1
    90    53    68    1
    91    53    94    1
    92    53    95    1
    93    54    66    1
    94    54    96    1
    95    55    58    1
    96    55    97    1
    97    58    70    1
    98    58    98    1
    99    59    66    1
   100    59    99    1
   101    60    67    1
   102    60   100    1
   103    62    63    1
   104    62   101    1
   105    63   102    1
