@<TRIPOS>MOLECULE
1G5N_LIGAND_2.pdb
 112 115 0 0 0
SMALL
GASTEIGER

@<TRIPOS>ATOM
      1  O4S       -5.7370   55.2970  -11.1740 O.2   902  SGN902     -0.1181
      2  O6S       -4.9350   57.5690  -11.2350 O.2   902  SGN902     -0.1181
      3  O1S        0.0610   51.2340  -18.1060 O.3   902  SGN902     -0.2626
      4  C2        -1.7060   53.9540  -15.8120 C.3   902  SGN902      0.1078
      5  O2         4.3800   52.8790  -13.4860 O.3   903  IDS903     -0.2047
      6  S1         8.5040   59.8480  -18.2140 S.3   904  SGN904     -0.0198
      7  O6S        5.9190   51.4590  -16.1040 O.2   904  SGN904     -0.1181
      8  O2S       -5.7870   62.0680  -14.2430 O.2   901  UAP901     -0.1181
      9  O3         1.6840   53.1570  -12.9690 O.3   903  IDS903     -0.3863
     10  O5S       -4.0910   56.0360   -9.5720 O.3   902  SGN902     -0.2311
     11  O6        -3.2690   55.6820  -12.0600 O.3   902  SGN902     -0.2131
     12  O3S       -4.6620   61.0910  -12.3520 O.2   901  UAP901     -0.1181
     13  O4S        6.7150   51.7360  -18.3680 O.2   904  SGN904     -0.1181
     14  C3         2.2670   53.7850  -14.0900 C.3   903  IDS903      0.1176
     15  O1         9.1440   57.8160  -14.9510 O.3   904  SGN904     -0.3656
     16  C5        -5.9340   57.0500  -16.6090 C.2   901  UAP901      0.2060
     17  C1        -4.6510   57.5530  -14.7230 C.3   901  UAP901      0.2340
     18  O5        -1.2390   54.8160  -13.6060 O.3   902  SGN902     -0.3413
     19  O2S       -2.1070   50.8800  -17.1160 O.3   902  SGN902     -0.2626
     20  C4         6.3470   55.8870  -15.6460 C.3   904  SGN904      0.1176
     21  C5         2.4840   56.1250  -15.0180 C.3   903  IDS903      0.1863
     22  O5         3.3860   55.3970  -15.8370 O.3   903  IDS903     -0.3314
     23  O4         5.3820   55.5750  -14.6450 O.3   904  SGN904     -0.3401
     24  O3S       -0.1790   51.1850  -15.7090 O.3   902  SGN902     -0.2626
     25  O3S        4.0710   52.0960  -10.9830 O.2   903  IDS903     -0.1181
     26  N         -1.1030   53.3300  -16.9720 N.3   902  SGN902     -0.1845
     27  C2        -4.9410   59.0390  -14.8860 C.3   901  UAP901      0.1808
     28  O1S       -7.0660   61.2450  -12.3760 O.3   901  UAP901     -0.2311
     29  O1S        9.9420   59.8860  -17.8950 O.3   904  SGN904     -0.2626
     30  C6         1.6960   57.0520  -15.9230 C.2   903  IDS903      0.3367
     31  C5         7.7040   55.3660  -15.1720 C.3   904  SGN904      0.1159
     32  O61       -6.5640   56.3250  -18.6230 O.2   901  UAP901     -0.2417
     33  C2         3.7140   54.0990  -13.7910 C.3   903  IDS903      0.1684
     34  C3         6.3990   57.4010  -15.7830 C.3   904  SGN904      0.1055
     35  S          5.1000   52.6360  -11.8960 S.O2  903  IDS903      0.2080
     36  O3         5.1840   57.8810  -16.3130 O.3   904  SGN904     -0.3874
     37  C6        -6.3380   56.0700  -17.4180 C.2   901  UAP901      0.3717
     38  C1         4.3560   54.6770  -15.0600 C.3   903  IDS903      0.1916
     39  S2         7.0830   51.8090  -16.9410 S.O2  904  SGN904      0.2076
     40  O3S        8.2750   58.9680  -19.3740 O.3   904  SGN904     -0.2626
     41  O2S        5.5970   53.9220  -11.3750 O.3   903  IDS903     -0.2311
     42  O5S        8.1860   50.8750  -16.6630 O.3   904  SGN904     -0.2311
     43  C3        -2.2810   55.3090  -16.2040 C.3   902  SGN902      0.1055
     44  O2        -5.9560   59.4350  -13.9670 O.3   901  UAP901     -0.2032
     45  O62       -6.4920   54.9200  -16.9540 O.3   901  UAP901     -0.4750
     46  S         -5.8650   61.0260  -13.2030 S.O2  901  UAP901      0.2080
     47  C4        -5.7790   58.2900  -17.1070 C.2   901  UAP901     -0.0041
     48  C6        -2.3940   56.6640  -12.6120 C.3   902  SGN902      0.1076
     49  O3        -3.2750   55.1410  -17.1890 O.3   902  SGN902     -0.3874
     50  O62        1.8490   56.9550  -17.1620 O.3   903  IDS903     -0.4788
     51  C2         7.5240   57.7610  -16.7340 C.3   904  SGN904      0.1076
     52  N          7.6200   59.1950  -16.8400 N.3   904  SGN904     -0.1845
     53  C6         7.6950   53.8500  -15.1890 C.3   904  SGN904      0.1076
     54  C1        -0.6490   54.1440  -14.7270 C.3   902  SGN902      0.1795
     55  C5        -1.7930   56.1090  -13.8960 C.3   902  SGN902      0.1159
     56  S1        -0.8190   51.5840  -16.9760 S.3   902  SGN902     -0.0198
     57  O5        -5.7000   56.7900  -15.3140 O.2   901  UAP901     -0.4538
     58  C4        -2.8780   55.9600  -14.9640 C.3   902  SGN902      0.1186
     59  C4         1.5390   55.1070  -14.3660 C.3   903  IDS903      0.1267
     60  C1         8.8440   57.2110  -16.2120 C.3   904  SGN904      0.1762
     61  O2S        8.0140   61.2090  -18.5080 O.3   904  SGN904     -0.2626
     62  C3        -5.3630   59.4220  -16.3050 C.3   901  UAP901      0.1116
     63  O3        -4.3210   60.1160  -16.9570 O.3   901  UAP901     -0.3848
     64  S2        -4.5640   56.1670  -10.9640 S.O2  902  SGN902      0.2076
     65  O61        0.9320   57.8810  -15.3950 O.2   903  IDS903     -0.2480
     66  O1         0.4590   54.8660  -15.2690 O.3   902  SGN902     -0.3406
     67  O5         8.7250   55.7910  -16.0810 O.3   904  SGN904     -0.3416
     68  O6         7.6020   53.4440  -16.5530 O.3   904  SGN904     -0.2131
     69  O1S        6.2130   51.6760  -12.0050 O.2   903  IDS903     -0.1181
     70  O4        -3.3890   57.2470  -15.3140 O.3   902  SGN902     -0.3308
     71 H           0.2176   50.2767  -18.1094 H     902  SGN902      0.2439
     72 H          -2.4901   53.3285  -15.4395 H     902  SGN902      0.0554
     73 H           2.1424   52.3207  -12.7921 H     903  IDS903      0.2100
     74 H          -4.7985   56.3012   -8.9638 H     902  SGN902      0.2469
     75 H           2.1938   53.1345  -14.9364 H     903  IDS903      0.0649
     76 H           9.2200   58.7765  -15.0631 H     904  SGN904      0.2125
     77 H          -4.6046   57.3020  -13.6839 H     901  UAP901      0.1085
     78 H          -1.9534   49.9222  -17.1184 H     902  SGN902      0.2439
     79 H           6.0976   55.4427  -16.5869 H     904  SGN904      0.0650
     80 H           2.9872   56.6937  -14.2642 H     903  IDS903      0.0742
     81 H          -0.0239   50.2275  -15.7126 H     902  SGN902      0.2439
     82 H          -0.1973   53.7778  -17.1121 H     902  SGN902      0.1485
     83 H          -4.0247   59.5531  -14.6836 H     901  UAP901      0.0714
     84 H          -7.0152   62.1184  -11.9571 H     901  UAP901      0.2469
     85 H          10.0886   60.4659  -17.1314 H     904  SGN904      0.2439
     86 H           7.8898   55.7393  -14.1866 H     904  SGN904      0.0648
     87 H           3.7860   54.7904  -12.9776 H     903  IDS903      0.0699
     88 H           6.5614   57.8408  -14.8212 H     904  SGN904      0.0638
     89 H           5.0328   57.4847  -17.1853 H     904  SGN904      0.2100
     90 H           4.7476   53.8858  -15.6646 H     903  IDS903      0.0939
     91 H           8.5996   58.0764  -19.1725 H     904  SGN904      0.2439
     92 H           4.8603   54.5492  -11.3056 H     903  IDS903      0.2469
     93 H           7.9055   49.9710  -16.8752 H     904  SGN904      0.2469
     94 H          -1.5088   55.9323  -16.6041 H     902  SGN902      0.0638
     95 H          -6.3167   54.7526  -16.0489 H     901  UAP901      0.2955
     96 H          -5.9658   58.4423  -18.1105 H     901  UAP901      0.0637
     97 H          -1.6135   56.8849  -11.9143 H     902  SGN902      0.0611
     98 H          -2.9363   57.5627  -12.8198 H     902  SGN902      0.0611
     99 H          -3.9833   54.5771  -16.8407 H     902  SGN902      0.2100
    100 H           2.4361   56.3146  -17.5128 H     903  IDS903      0.2951
    101 H           7.3185   57.3364  -17.6944 H     904  SGN904      0.0554
    102 H           6.6697   59.5628  -16.8849 H     904  SGN904      0.1485
    103 H           6.8541   53.4822  -14.6389 H     904  SGN904      0.0611
    104 H           8.5825   53.4598  -14.7363 H     904  SGN904      0.0611
    105 H          -0.2833   53.1987  -14.3840 H     902  SGN902      0.0927
    106 H          -1.0383   56.7741  -14.2607 H     902  SGN902      0.0648
    107 H          -3.6699   55.3520  -14.5792 H     902  SGN902      0.0651
    108 H           1.1842   55.4966  -13.4347 H     903  IDS903      0.0656
    109 H           9.6408   57.4349  -16.8901 H     904  SGN904      0.0925
    110 H           8.1684   61.7812  -17.7401 H     904  SGN904      0.2439
    111 H          -6.2177   60.0574  -16.2019 H     901  UAP901      0.0668
    112 H          -3.5507   59.5332  -17.0463 H     901  UAP901      0.2103
@<TRIPOS>BOND
     1     1    64    2
     2     2    64    2
     3     3    56    1
     4     4    54    1
     5     4    43    1
     6     4    26    1
     7     5    33    1
     8     5    35    1
     9     6    52    1
    10     6    29    1
    11     6    61    1
    12     6    40    1
    13     7    39    2
    14     8    46    2
    15     9    14    1
    16    10    64    1
    17    11    48    1
    18    11    64    1
    19    12    46    2
    20    13    39    2
    21    14    33    1
    22    14    59    1
    23    15    60    1
    24    16    47    2
    25    16    37    1
    26    16    57    1
    27    17    27    1
    28    17    57    1
    29    17    70    1
    30    18    54    1
    31    18    55    1
    32    19    56    1
    33    20    34    1
    34    20    31    1
    35    20    23    1
    36    21    59    1
    37    21    30    1
    38    21    22    1
    39    22    38    1
    40    23    38    1
    41    24    56    1
    42    25    35    2
    43    26    56    1
    44    27    62    1
    45    27    44    1
    46    28    46    1
    47    30    65    2
    48    30    50    1
    49    31    53    1
    50    31    67    1
    51    32    37    2
    52    33    38    1
    53    34    51    1
    54    34    36    1
    55    35    69    2
    56    35    41    1
    57    37    45    1
    58    39    68    1
    59    39    42    1
    60    43    58    1
    61    43    49    1
    62    44    46    1
    63    47    62    1
    64    48    55    1
    65    51    60    1
    66    51    52    1
    67    53    68    1
    68    54    66    1
    69    55    58    1
    70    58    70    1
    71    59    66    1
    72    60    67    1
    73    62    63    1
    74     3    71    1
    75     4    72    1
    76     9    73    1
    77    10    74    1
    78    14    75    1
    79    15    76    1
    80    17    77    1
    81    19    78    1
    82    20    79    1
    83    21    80    1
    84    24    81    1
    85    26    82    1
    86    27    83    1
    87    28    84    1
    88    29    85    1
    89    31    86    1
    90    33    87    1
    91    34    88    1
    92    36    89    1
    93    38    90    1
    94    40    91    1
    95    41    92    1
    96    42    93    1
    97    43    94    1
    98    45    95    1
    99    47    96    1
   100    48    97    1
   101    48    98    1
   102    49    99    1
   103    50   100    1
   104    51   101    1
   105    52   102    1
   106    53   103    1
   107    53   104    1
   108    54   105    1
   109    55   106    1
   110    58   107    1
   111    59   108    1
   112    60   109    1
   113    61   110    1
   114    62   111    1
   115    63   112    1
