@<TRIPOS>MOLECULE
1GMN_LIGAND_1_uncharged.pdb
 127 131 0 0 0
SMALL
GASTEIGER

@<TRIPOS>ATOM
      1  O6       138.5710    8.5460   79.9690 O.3   302  SGN302     -0.2520
      2  S1       139.6060   15.4600   81.1550 S.3   302  SGN302      0.0767
      3  S2       134.5240   13.1360   69.5670 S.3   304  SGN304     -0.0008
      4  O5       135.9440   10.7820   77.3090 O.3   303  IDS303     -0.3314
      5  O3S      133.1690    7.3750   79.7850 O.2   303  IDS303     -0.3452
      6  O2       138.3420    9.2150   70.1330 O.3   305  IDS305     -0.2436
      7  C3       138.6080   12.9790   85.5670 C.3   301  IDS301      0.1174
      8  C4       134.6390    9.4230   72.0210 C.3   304  SGN304      0.1176
      9  N        138.3750   14.4470   81.5040 N.3   302  SGN302     -0.1775
     10  O62      133.4010    6.8650   67.2660 O.2   305  IDS305     -0.2481
     11  C2       139.4000   12.7780   86.8740 C.3   301  IDS301      0.1642
     12  C1       135.9590    8.7930   70.0650 C.3   305  IDS305      0.1913
     13  O5S      140.0320    7.3520   78.5210 O.2   302  SGN302     -0.3452
     14  C2       132.7810    9.1210   73.6690 C.3   304  SGN304      0.1081
     15  O1S      141.2620   14.2610   88.6570 O.2   301  IDS301     -0.3452
     16  O2       133.8890    8.5220   77.7790 O.3   303  IDS303     -0.2435
     17  O62      136.9830   12.0870   75.2440 O.2   303  IDS303     -0.2480
     18  C4       138.9570   11.8670   84.5280 C.3   301  IDS301      0.1267
     19  O3S      140.3830    8.1690   70.8170 O.2   305  IDS305     -0.3452
     20  O3       136.5010   13.5080   79.5670 O.3   302  SGN302     -0.3874
     21  C6       136.0220   12.6250   75.7530 C.2   303  IDS303      0.3367
     22  S2       139.3120    7.1880   79.7460 S.3   302  SGN302     -0.0008
     23  O6       134.4080   12.3040   70.8840 O.3   304  SGN304     -0.2520
     24  O3       133.7830    7.2190   72.5680 O.3   304  SGN304     -0.3874
     25  O1S      139.2470   16.6830   81.8080 O.3   302  SGN302     -0.0534
     26  O3S      139.6280   15.5730   79.7250 O.3   302  SGN302     -0.0534
     27  O61      135.7260   13.7390   75.3710 O.3   303  IDS303     -0.4788
     28  C3       136.9460   12.6450   80.6000 C.3   302  SGN302      0.1055
     29  O1       140.1350   11.0500   88.3580 O.3   301  IDS301     -0.3648
     30  C4       136.9770   11.1850   80.1000 C.3   302  SGN302      0.1176
     31  C5       134.9320   10.8080   72.6860 C.3   304  SGN304      0.1158
     32  O5S      133.2350   13.0070   68.9450 O.2   304  SGN304     -0.3452
     33  C5       139.6110   10.6270   85.2460 C.3   301  IDS301      0.1863
     34  S1       130.5370    8.3820   74.9850 S.3   304  SGN304      0.0767
     35  O3S      139.3180   15.2290   89.6590 O.2   301  IDS301     -0.3452
     36  O2S      140.8100   14.9100   81.6970 O.3   302  SGN302     -0.0534
     37  C6       133.9650    6.2550   68.1480 C.2   305  IDS305      0.3341
     38  O5       138.8060   10.7460   81.7070 O.3   302  SGN302     -0.3413
     39  O5       133.7380   11.3480   73.3100 O.3   304  SGN304     -0.3413
     40  C1       133.0930   10.5170   74.2760 C.3   304  SGN304      0.1795
     41  C5       135.2090    6.8090   68.8360 C.3   305  IDS305      0.1603
     42  C2       133.9770    9.7940   78.4020 C.3   303  IDS303      0.1644
     43  O3       132.6650   11.8170   78.5080 O.3   303  IDS303     -0.3863
     44  O6S      140.1700    7.0310   80.8840 O.3   302  SGN302     -0.2682
     45  S        139.9830   14.8780   88.4290 S.3   301  IDS301     -0.0004
     46  C5       135.2120   11.9240   76.8430 C.3   303  IDS303      0.1863
     47  C4       136.5070    6.7020   67.9680 C.3   305  IDS305      0.0128
     48  O2S      129.9860    9.4780   74.2290 O.3   304  SGN304     -0.0534
     49  C1       139.0820   11.3860   87.4980 C.3   301  IDS301      0.1885
     50  O3       138.8450    7.2670   68.1520 O.3   305  IDS305     -0.3889
     51  C6       135.4600   11.8870   71.7300 C.3   304  SGN304      0.1035
     52  O3S      130.0160    7.1080   74.5850 O.3   304  SGN304     -0.0534
     53  C3       133.0840   10.7960   77.6190 C.3   303  IDS303      0.1174
     54  S        133.6530    7.1210   78.4520 S.3   303  IDS303     -0.0004
     55  O1S      130.4210    8.5990   76.4000 O.3   304  SGN304     -0.0534
     56  C6       139.6560    9.3460   84.4220 C.2   301  IDS301      0.3367
     57  C1       135.4770   10.1770   78.5090 C.3   303  IDS303      0.1915
     58  O4       135.6390    8.5850   71.4180 O.3   304  SGN304     -0.3401
     59  O1S      134.9200    6.4410   78.4390 O.2   303  IDS303     -0.3452
     60  O4       138.2430   12.2830   83.3530 O.3   301  IDS301     -0.3406
     61  C4       133.7980   11.4660   76.4100 C.3   303  IDS303      0.1267
     62  O3       138.9260   14.2500   85.0210 O.3   301  IDS301     -0.3863
     63  O62      138.6560    8.7190   84.1640 O.3   301  IDS301     -0.4788
     64  O4S      135.5810   12.5530   68.7870 O.2   304  SGN304     -0.3452
     65  O2S      140.0360   15.9650   87.4860 O.3   301  IDS301     -0.2682
     66  C3       134.0780    8.4880   73.1250 C.3   304  SGN304      0.1055
     67  S        139.4540    9.1780   71.2340 S.3   305  IDS305     -0.0004
     68  O2S      138.8190    8.8820   72.4830 O.3   305  IDS305     -0.2682
     69  O5       138.9120   10.3860   86.4870 O.3   301  IDS301     -0.3316
     70  C2       138.3530   13.0580   81.0130 C.3   302  SGN302      0.1081
     71  C2       137.3810    8.2170   69.8260 C.3   305  IDS305      0.1620
     72  O2S      132.6790    6.4670   77.6130 O.3   303  IDS303     -0.2682
     73  O5       134.9860    8.1910   69.1960 O.3   305  IDS305     -0.3340
     74  C1       138.8890   12.1150   82.1200 C.3   302  SGN302      0.1795
     75  O61      133.5090    5.1800   68.4720 O.3   305  IDS305     -0.4788
     76  O4       133.8840   10.4110   75.4400 O.3   303  IDS303     -0.3406
     77  N        132.1570    8.2940   74.7150 N.3   304  SGN304     -0.1775
     78  O4S      138.3050    6.1680   79.6500 O.2   302  SGN302     -0.3452
     79  C6       137.5920    8.7960   80.9500 C.3   302  SGN302      0.1035
     80  O61      140.7090    8.9240   84.0000 O.2   301  IDS301     -0.2480
     81  O2       139.0460   13.8000   87.7870 O.3   301  IDS301     -0.2435
     82  O1S      140.0210   10.4970   71.2140 O.2   305  IDS305     -0.3452
     83  C5       137.4900   10.2960   81.2790 C.3   302  SGN302      0.1158
     84  C3       137.5470    7.7930   68.3520 C.3   305  IDS305      0.0912
     85  O6S      134.7990   14.4830   69.9720 O.3   304  SGN304     -0.2682
     86  O4       135.6490   11.0100   79.6160 O.3   302  SGN302     -0.3401
     87  H        137.5620   12.9210   85.7870 H     301  IDS301      0.0649
     88  H        134.0430    9.7660   71.2010 H     304  SGN304      0.0650
     89  H        137.5290   14.8910   81.1480 H     302  SGN302      0.1487
     90  H        140.4470   12.8220   86.6600 H     301  IDS301      0.0698
     91  H        135.9470    9.8390   69.8380 H     305  IDS305      0.0939
     92  H        132.1020    9.2020   72.8460 H     304  SGN304      0.0554
     93  H        139.6360   11.3900   83.8530 H     301  IDS301      0.0656
     94  H        136.4860   14.4210   79.8930 H     302  SGN302      0.2100
     95  H        134.5970    6.8190   72.2250 H     304  SGN304      0.2100
     96  H        134.9890   14.1820   75.7440 H     303  IDS303      0.2951
     97  H        136.2760   12.7150   81.4310 H     302  SGN302      0.0638
     98  H        140.2330   11.7390   89.0340 H     301  IDS301      0.2126
     99  H        137.6450   10.9130   79.3100 H     302  SGN302      0.0650
    100  H        135.7000   10.5900   73.3980 H     304  SGN304      0.0648
    101  H        140.6360   10.8870   85.4080 H     301  IDS301      0.0741
    102  H        132.1620   10.9660   74.5540 H     304  SGN304      0.0927
    103  H        135.3700    6.2060   69.7050 H     305  IDS305      0.0715
    104  H        133.5990    9.7990   79.4030 H     303  IDS303      0.0698
    105  H        132.2170   11.4180   79.2700 H     303  IDS303      0.2100
    106  H        135.0660   12.6530   77.6120 H     303  IDS303      0.0742
    107  H        136.2450    6.8200   66.9370 H     305  IDS305      0.0321
    108  H        136.9480    5.7430   68.1440 H     305  IDS305      0.0321
    109  H        138.1610   11.4350   88.0400 H     301  IDS301      0.0936
    110  H        138.9470    7.0010   67.2250 H     305  IDS305      0.2099
    111  H        135.8200   12.7220   72.2940 H     304  SGN304      0.0610
    112  H        136.2620   11.4900   71.1430 H     304  SGN304      0.0610
    113  H        132.2640   10.2330   77.2250 H     303  IDS303      0.0649
    114  H        136.0640    9.2930   78.6450 H     303  IDS303      0.0939
    115  H        133.2880   12.3280   76.0320 H     303  IDS303      0.0656
    116  H        139.8750   14.2900   84.8260 H     301  IDS301      0.2100
    117  H        137.8230    9.0160   84.4740 H     301  IDS301      0.2951
    118  H        134.7950    8.3660   73.9090 H     304  SGN304      0.0638
    119  H        138.9800   12.9880   80.1480 H     302  SGN302      0.0554
    120  H        137.5210    7.3610   70.4530 H     305  IDS305      0.0697
    121  H        139.9140   12.3850   82.2660 H     302  SGN302      0.0927
    122  H        133.9210    4.6820   69.1510 H     305  IDS305      0.2951
    123  H        132.6140    8.5380   75.5940 H     304  SGN304      0.1487
    124  H        137.8490    8.2620   81.8410 H     302  SGN302      0.0610
    125  H        136.6460    8.4720   80.5690 H     302  SGN302      0.0610
    126  H        136.7560   10.4060   82.0490 H     302  SGN302      0.0648
    127  H        137.3940    8.6560   67.7390 H     305  IDS305      0.0622
@<TRIPOS>BOND
     1     1    79    1
     2     1    22    1
     3     2     9    1
     4     2    25    1
     5     2    36    1
     6     2    26    1
     7     3    23    1
     8     3    64    2
     9     3    32    2
    10     3    85    1
    11     4    57    1
    12     4    46    1
    13     5    54    2
    14     6    71    1
    15     6    67    1
    16     7    11    1
    17     7    18    1
    18     7    62    1
    19     7    87    1
    20     8    66    1
    21     8    31    1
    22     8    58    1
    23     8    88    1
    24     9    70    1
    25     9    89    1
    26    10    37    2
    27    11    49    1
    28    11    81    1
    29    11    90    1
    30    12    58    1
    31    12    71    1
    32    12    73    1
    33    12    91    1
    34    13    22    2
    35    14    40    1
    36    14    66    1
    37    14    77    1
    38    14    92    1
    39    15    45    2
    40    16    42    1
    41    16    54    1
    42    17    21    2
    43    18    33    1
    44    18    60    1
    45    18    93    1
    46    19    67    2
    47    20    28    1
    48    20    94    1
    49    21    46    1
    50    21    27    1
    51    22    78    2
    52    22    44    1
    53    23    51    1
    54    24    66    1
    55    24    95    1
    56    27    96    1
    57    28    70    1
    58    28    30    1
    59    28    97    1
    60    29    49    1
    61    29    98    1
    62    30    83    1
    63    30    86    1
    64    30    99    1
    65    31    51    1
    66    31    39    1
    67    31   100    1
    68    33    56    1
    69    33    69    1
    70    33   101    1
    71    34    77    1
    72    34    55    1
    73    34    48    1
    74    34    52    1
    75    35    45    2
    76    37    41    1
    77    37    75    1
    78    38    74    1
    79    38    83    1
    80    39    40    1
    81    40    76    1
    82    40   102    1
    83    41    47    1
    84    41    73    1
    85    41   103    1
    86    42    57    1
    87    42    53    1
    88    42   104    1
    89    43    53    1
    90    43   105    1
    91    45    81    1
    92    45    65    1
    93    46    61    1
    94    46   106    1
    95    47    84    1
    96    47   107    1
    97    47   108    1
    98    49    69    1
    99    49   109    1
   100    50    84    1
   101    50   110    1
   102    51   111    1
   103    51   112    1
   104    53    61    1
   105    53   113    1
   106    54    59    2
   107    54    72    1
   108    56    80    2
   109    56    63    1
   110    57    86    1
   111    57   114    1
   112    60    74    1
   113    61    76    1
   114    61   115    1
   115    62   116    1
   116    63   117    1
   117    66   118    1
   118    67    82    2
   119    67    68    1
   120    70    74    1
   121    70   119    1
   122    71    84    1
   123    71   120    1
   124    74   121    1
   125    75   122    1
   126    77   123    1
   127    79    83    1
   128    79   124    1
   129    79   125    1
   130    83   126    1
   131    84   127    1
