@<TRIPOS>MOLECULE
1GMN_LIGAND_1.pdb
 138 142 0 0 0
SMALL
GASTEIGER

@<TRIPOS>ATOM
      1  O6       138.5710    8.5460   79.9690 O.3   302  SGN302     -0.2131
      2  S1       139.6060   15.4600   81.1550 S.3   302  SGN302     -0.0198
      3  S2       134.5240   13.1360   69.5670 S.O2  304  SGN304      0.2076
      4  O5       135.9440   10.7820   77.3090 O.3   303  IDS303     -0.3314
      5  O3S      133.1690    7.3750   79.7850 O.2   303  IDS303     -0.1181
      6  O2       138.3420    9.2150   70.1330 O.3   305  IDS305     -0.2048
      7  C3       138.6080   12.9790   85.5670 C.3   301  IDS301      0.1175
      8  C4       134.6390    9.4230   72.0210 C.3   304  SGN304      0.1176
      9  N        138.3750   14.4470   81.5040 N.3   302  SGN302     -0.1845
     10  O62      133.4010    6.8650   67.2660 O.2   305  IDS305     -0.2481
     11  C2       139.4000   12.7780   86.8740 C.3   301  IDS301      0.1682
     12  C1       135.9590    8.7930   70.0650 C.3   305  IDS305      0.1914
     13  O5S      140.0320    7.3520   78.5210 O.2   302  SGN302     -0.1181
     14  C2       132.7810    9.1210   73.6690 C.3   304  SGN304      0.1078
     15  O1S      141.2620   14.2610   88.6570 O.2   301  IDS301     -0.1181
     16  O2       133.8890    8.5220   77.7790 O.3   303  IDS303     -0.2047
     17  O62      136.9830   12.0870   75.2440 O.2   303  IDS303     -0.2480
     18  C4       138.9570   11.8670   84.5280 C.3   301  IDS301      0.1267
     19  O3S      140.3830    8.1690   70.8170 O.2   305  IDS305     -0.1181
     20  O3       136.5010   13.5080   79.5670 O.3   302  SGN302     -0.3874
     21  C6       136.0220   12.6250   75.7530 C.2   303  IDS303      0.3367
     22  S2       139.3120    7.1880   79.7460 S.O2  302  SGN302      0.2076
     23  O6       134.4080   12.3040   70.8840 O.3   304  SGN304     -0.2131
     24  O3       133.7830    7.2190   72.5680 O.3   304  SGN304     -0.3874
     25  O1S      139.2470   16.6830   81.8080 O.3   302  SGN302     -0.2626
     26  O3S      139.6280   15.5730   79.7250 O.3   302  SGN302     -0.2626
     27  O61      135.7260   13.7390   75.3710 O.3   303  IDS303     -0.4788
     28  C3       136.9460   12.6450   80.6000 C.3   302  SGN302      0.1055
     29  O1       140.1350   11.0500   88.3580 O.3   301  IDS301     -0.3648
     30  C4       136.9770   11.1850   80.1000 C.3   302  SGN302      0.1176
     31  C5       134.9320   10.8080   72.6860 C.3   304  SGN304      0.1159
     32  O5S      133.2350   13.0070   68.9450 O.2   304  SGN304     -0.1181
     33  C5       139.6110   10.6270   85.2460 C.3   301  IDS301      0.1863
     34  S1       130.5370    8.3820   74.9850 S.3   304  SGN304     -0.0198
     35  O3S      139.3180   15.2290   89.6590 O.2   301  IDS301     -0.1181
     36  O2S      140.8100   14.9100   81.6970 O.3   302  SGN302     -0.2626
     37  C6       133.9650    6.2550   68.1480 C.2   305  IDS305      0.3341
     38  O5       138.8060   10.7460   81.7070 O.3   302  SGN302     -0.3413
     39  O5       133.7380   11.3480   73.3100 O.3   304  SGN304     -0.3413
     40  C1       133.0930   10.5170   74.2760 C.3   304  SGN304      0.1795
     41  C5       135.2090    6.8090   68.8360 C.3   305  IDS305      0.1603
     42  C2       133.9770    9.7940   78.4020 C.3   303  IDS303      0.1684
     43  O3       132.6650   11.8170   78.5080 O.3   303  IDS303     -0.3863
     44  O6S      140.1700    7.0310   80.8840 O.3   302  SGN302     -0.2311
     45  S        139.9830   14.8780   88.4290 S.O2  301  IDS301      0.2080
     46  C5       135.2120   11.9240   76.8430 C.3   303  IDS303      0.1863
     47  C4       136.5070    6.7020   67.9680 C.3   305  IDS305      0.0128
     48  O2S      129.9860    9.4780   74.2290 O.3   304  SGN304     -0.2626
     49  C1       139.0820   11.3860   87.4980 C.3   301  IDS301      0.1886
     50  O3       138.8450    7.2670   68.1520 O.3   305  IDS305     -0.3889
     51  C6       135.4600   11.8870   71.7300 C.3   304  SGN304      0.1076
     52  O3S      130.0160    7.1080   74.5850 O.3   304  SGN304     -0.2626
     53  C3       133.0840   10.7960   77.6190 C.3   303  IDS303      0.1176
     54  S        133.6530    7.1210   78.4520 S.O2  303  IDS303      0.2080
     55  O1S      130.4210    8.5990   76.4000 O.3   304  SGN304     -0.2626
     56  C6       139.6560    9.3460   84.4220 C.2   301  IDS301      0.3367
     57  C1       135.4770   10.1770   78.5090 C.3   303  IDS303      0.1916
     58  O4       135.6390    8.5850   71.4180 O.3   304  SGN304     -0.3401
     59  O1S      134.9200    6.4410   78.4390 O.2   303  IDS303     -0.1181
     60  O4       138.2430   12.2830   83.3530 O.3   301  IDS301     -0.3406
     61  C4       133.7980   11.4660   76.4100 C.3   303  IDS303      0.1267
     62  O3       138.9260   14.2500   85.0210 O.3   301  IDS301     -0.3863
     63  O62      138.6560    8.7190   84.1640 O.3   301  IDS301     -0.4788
     64  O4S      135.5810   12.5530   68.7870 O.2   304  SGN304     -0.1181
     65  O2S      140.0360   15.9650   87.4860 O.3   301  IDS301     -0.2311
     66  C3       134.0780    8.4880   73.1250 C.3   304  SGN304      0.1055
     67  S        139.4540    9.1780   71.2340 S.O2  305  IDS305      0.2080
     68  O2S      138.8190    8.8820   72.4830 O.3   305  IDS305     -0.2311
     69  O5       138.9120   10.3860   86.4870 O.3   301  IDS301     -0.3316
     70  C2       138.3530   13.0580   81.0130 C.3   302  SGN302      0.1078
     71  C2       137.3810    8.2170   69.8260 C.3   305  IDS305      0.1660
     72  O2S      132.6790    6.4670   77.6130 O.3   303  IDS303     -0.2311
     73  O5       134.9860    8.1910   69.1960 O.3   305  IDS305     -0.3340
     74  C1       138.8890   12.1150   82.1200 C.3   302  SGN302      0.1795
     75  O61      133.5090    5.1800   68.4720 O.3   305  IDS305     -0.4788
     76  O4       133.8840   10.4110   75.4400 O.3   303  IDS303     -0.3406
     77  N        132.1570    8.2940   74.7150 N.3   304  SGN304     -0.1845
     78  O4S      138.3050    6.1680   79.6500 O.2   302  SGN302     -0.1181
     79  C6       137.5920    8.7960   80.9500 C.3   302  SGN302      0.1076
     80  O61      140.7090    8.9240   84.0000 O.2   301  IDS301     -0.2480
     81  O2       139.0460   13.8000   87.7870 O.3   301  IDS301     -0.2047
     82  O1S      140.0210   10.4970   71.2140 O.2   305  IDS305     -0.1181
     83  C5       137.4900   10.2960   81.2790 C.3   302  SGN302      0.1159
     84  C3       137.5470    7.7930   68.3520 C.3   305  IDS305      0.0914
     85  O6S      134.7990   14.4830   69.9720 O.3   304  SGN304     -0.2311
     86  O4       135.6490   11.0100   79.6160 O.3   302  SGN302     -0.3401
     87 H         137.5624   12.9215   85.7869 H     301  IDS301      0.0649
     88 H         134.0429    9.7660   71.2013 H     304  SGN304      0.0650
     89 H         137.5285   14.8907   81.1478 H     302  SGN302      0.1485
     90 H         140.4475   12.8222   86.6602 H     301  IDS301      0.0699
     91 H         135.9468    9.8386   69.8379 H     305  IDS305      0.0939
     92 H         132.1018    9.2021   72.8462 H     304  SGN304      0.0554
     93 H         139.6364   11.3897   83.8531 H     301  IDS301      0.0656
     94 H         136.4858   14.4215   79.8929 H     302  SGN302      0.2100
     95 H         134.5975    6.8191   72.2252 H     304  SGN304      0.2100
     96 H         139.2481   16.5490   82.7687 H     302  SGN302      0.2439
     97 H         138.7889   15.9503   79.4175 H     302  SGN302      0.2439
     98 H         134.9893   14.1818   75.7440 H     303  IDS303      0.2951
     99 H         136.2760   12.7152   81.4313 H     302  SGN302      0.0638
    100 H         140.2329   11.7389   89.0338 H     301  IDS301      0.2126
    101 H         137.6452   10.9129   79.3098 H     302  SGN302      0.0650
    102 H         135.6999   10.5897   73.3984 H     304  SGN304      0.0648
    103 H         140.6363   10.8867   85.4081 H     301  IDS301      0.0741
    104 H         140.7358   14.8585   82.6628 H     302  SGN302      0.2439
    105 H         132.1625   10.9662   74.5539 H     304  SGN304      0.0927
    106 H         135.3702    6.2062   69.7052 H     305  IDS305      0.0715
    107 H         133.5991    9.7994   79.4030 H     303  IDS303      0.0699
    108 H         132.2166   11.4182   79.2701 H     303  IDS303      0.2100
    109 H         140.8261    7.7454   80.8953 H     302  SGN302      0.2469
    110 H         135.0658   12.6533   77.6122 H     303  IDS303      0.0742
    111 H         136.2455    6.8196   66.9371 H     305  IDS305      0.0321
    112 H         136.9484    5.7434   68.1445 H     305  IDS305      0.0321
    113 H         130.3719   10.3118   74.5402 H     304  SGN304      0.2439
    114 H         138.1606   11.4354   88.0398 H     301  IDS301      0.0937
    115 H         138.9468    7.0012   67.2247 H     305  IDS305      0.2099
    116 H         135.8195   12.7220   72.2943 H     304  SGN304      0.0611
    117 H         136.2615   11.4900   71.1428 H     304  SGN304      0.0611
    118 H         130.4194    6.4099   75.1243 H     304  SGN304      0.2439
    119 H         132.2636   10.2331   77.2253 H     303  IDS303      0.0649
    120 H         130.7846    9.4698   76.6244 H     304  SGN304      0.2439
    121 H         136.0644    9.2931   78.6452 H     303  IDS303      0.0939
    122 H         133.2884   12.3277   76.0323 H     303  IDS303      0.0656
    123 H         139.8754   14.2898   84.8261 H     301  IDS301      0.2100
    124 H         137.8234    9.0164   84.4744 H     301  IDS301      0.2951
    125 H         140.6072   16.6675   87.8341 H     301  IDS301      0.2469
    126 H         134.7953    8.3656   73.9094 H     304  SGN304      0.0638
    127 H         138.4508    7.9851   72.4540 H     305  IDS305      0.2469
    128 H         138.9796   12.9877   80.1485 H     302  SGN302      0.0554
    129 H         137.5213    7.3611   70.4526 H     305  IDS305      0.0698
    130 H         131.8414    6.9549   77.6492 H     303  IDS303      0.2469
    131 H         139.9141   12.3847   82.2661 H     302  SGN302      0.0927
    132 H         133.9205    4.6819   69.1506 H     305  IDS305      0.2951
    133 H         132.6144    8.5379   75.5935 H     304  SGN304      0.1485
    134 H         137.8487    8.2618   81.8408 H     302  SGN302      0.0611
    135 H         136.6461    8.4717   80.5692 H     302  SGN302      0.0611
    136 H         136.7556   10.4065   82.0493 H     302  SGN302      0.0648
    137 H         137.3943    8.6563   67.7386 H     305  IDS305      0.0622
    138 H         135.6756   14.5238   70.3853 H     304  SGN304      0.2469
@<TRIPOS>BOND
     1     1    79    1
     2     1    22    1
     3     2     9    1
     4     2    25    1
     5     2    36    1
     6     2    26    1
     7     3    23    1
     8     3    64    2
     9     3    32    2
    10     3    85    1
    11     4    57    1
    12     4    46    1
    13     5    54    2
    14     6    71    1
    15     6    67    1
    16     7    11    1
    17     7    18    1
    18     7    62    1
    19     8    66    1
    20     8    31    1
    21     8    58    1
    22     9    70    1
    23    10    37    2
    24    11    49    1
    25    11    81    1
    26    12    58    1
    27    12    71    1
    28    12    73    1
    29    13    22    2
    30    14    40    1
    31    14    66    1
    32    14    77    1
    33    15    45    2
    34    16    42    1
    35    16    54    1
    36    17    21    2
    37    18    33    1
    38    18    60    1
    39    19    67    2
    40    20    28    1
    41    21    46    1
    42    21    27    1
    43    22    78    2
    44    22    44    1
    45    23    51    1
    46    24    66    1
    47    28    70    1
    48    28    30    1
    49    29    49    1
    50    30    83    1
    51    30    86    1
    52    31    51    1
    53    31    39    1
    54    33    56    1
    55    33    69    1
    56    34    77    1
    57    34    55    1
    58    34    48    1
    59    34    52    1
    60    35    45    2
    61    37    41    1
    62    37    75    1
    63    38    74    1
    64    38    83    1
    65    39    40    1
    66    40    76    1
    67    41    47    1
    68    41    73    1
    69    42    57    1
    70    42    53    1
    71    43    53    1
    72    45    81    1
    73    45    65    1
    74    46    61    1
    75    47    84    1
    76    49    69    1
    77    50    84    1
    78    53    61    1
    79    54    59    2
    80    54    72    1
    81    56    80    2
    82    56    63    1
    83    57    86    1
    84    60    74    1
    85    61    76    1
    86    67    82    2
    87    67    68    1
    88    70    74    1
    89    71    84    1
    90    79    83    1
    91     7    87    1
    92     8    88    1
    93     9    89    1
    94    11    90    1
    95    12    91    1
    96    14    92    1
    97    18    93    1
    98    20    94    1
    99    24    95    1
   100    25    96    1
   101    26    97    1
   102    27    98    1
   103    28    99    1
   104    29   100    1
   105    30   101    1
   106    31   102    1
   107    33   103    1
   108    36   104    1
   109    40   105    1
   110    41   106    1
   111    42   107    1
   112    43   108    1
   113    44   109    1
   114    46   110    1
   115    47   111    1
   116    47   112    1
   117    48   113    1
   118    49   114    1
   119    50   115    1
   120    51   116    1
   121    51   117    1
   122    52   118    1
   123    53   119    1
   124    55   120    1
   125    57   121    1
   126    61   122    1
   127    62   123    1
   128    63   124    1
   129    65   125    1
   130    66   126    1
   131    68   127    1
   132    70   128    1
   133    71   129    1
   134    72   130    1
   135    74   131    1
   136    75   132    1
   137    77   133    1
   138    79   134    1
   139    79   135    1
   140    83   136    1
   141    84   137    1
   142    85   138    1
