@<TRIPOS>MOLECULE
1HPN_LIGAND_1.pdb
 863 806 0 0 0
SMALL
GASTEIGER

@<TRIPOS>ATOM
      1  O2S        4.1170   10.2430    5.3710 O.2     2  IDS2       -0.1181
      2  O2S       -0.6890    5.0900    5.5770 O.3     2  IDS2       -0.2557
      3  H2       -15.6630  -18.3490   -2.5940 H       9  SGN9        0.0548
      4  H2       -15.1400  -18.2100   -3.2590 H       9  SGN9        0.0194
      5  O2        -9.6980   -3.7970    2.4740 O.3     6  IDS6       -0.2047
      6  O2        -9.8930   -6.4840    1.7320 O.3     6  IDS6       -0.3982
      7  O5S      -15.9430  -10.1090   -4.7620 O.3     7  SGN7       -0.2727
      8  O5S      -15.7700   -8.6670   -5.6560 O.3     7  SGN7       -0.2454
      9  S1        -1.9280   -4.7830   -2.4870 S.3     5  SGN5        0.2494
     10  S1        -1.2680   -5.3950   -2.3690 S.3     5  SGN5       -0.1960
     11  O61        2.1810    6.0600   -0.6760 O.2     2  IDS2       -0.2476
     12  O61        3.7910    3.4980    0.5330 O.2     2  IDS2       -0.4733
     13  HN       -15.3400  -16.2540   -4.3430 H       9  SGN9        0.1415
     14  HN       -15.6840  -15.7240   -4.7190 H       9  SGN9        0.1360
     15  O1S      -12.8890  -18.2440   -3.2240 O.3     9  SGN9       -0.2835
     16  O1S      -13.3010  -17.9440   -5.3430 O.3     9  SGN9       -0.0906
     17  O5       -14.0350  -12.5840   -1.2190 O.3     8  IDS8       -0.3371
     18  O5       -14.6910  -12.2190   -2.0130 O.3     8  IDS8       -0.3862
     19  S2       -14.5680   -9.9990   -5.1650 S.3     7  SGN7        0.3144
     20  S2       -14.3730   -8.8010   -5.9560 S.O     7  SGN7        0.1398
     21  O61      -27.6920  -26.4140   -0.7170 O.3    12  IDS12      -0.1628
     22  O61      -27.8900  -24.9140   -0.8670 O.3    12  IDS12      -0.1573
     23  C6        -2.9020   -1.0530    3.1330 C.3     4  IDS4        0.2263
     24  C6        -4.1720   -1.0070    2.3300 C.3     4  IDS4        0.3379
     25  C3       -10.7350   -5.1040    0.7640 C.3     6  IDS6        0.1172
     26  C3        -9.8200   -5.0090   -0.1480 C.3     6  IDS6        0.0330
     27  C1       -15.0780  -16.8130   -1.1800 C.3     9  SGN9        0.1789
     28  C1       -14.6480  -16.5070   -2.0400 C.3     9  SGN9       -0.0776
     29  O3       -17.6430  -17.2850   -3.8730 O.3     9  SGN9       -0.3874
     30  O3       -17.6120  -17.7300   -3.9910 O.3     9  SGN9       -0.4105
     31  C1       -24.3360  -19.7380   -3.4490 C.3    11  SGN11       0.1540
     32  C1       -24.0290  -19.4610   -2.1810 C.3    11  SGN11       0.1479
     33  O2       -23.0010  -26.3270   -4.9850 O.3    12  IDS12      -0.2047
     34  O2       -26.2410  -25.5760   -6.0180 O.3    12  IDS12      -0.3928
     35  C4       -22.4490  -18.2590   -3.2840 C.3    10  IDS10       0.1214
     36  C4       -21.8950  -18.3950   -2.4740 C.3    10  IDS10       0.0392
     37  O5       -15.8960  -17.2980   -0.1570 O.3     9  SGN9       -0.3414
     38  O5       -15.0470  -17.0960   -0.8370 O.3     9  SGN9       -0.3982
     39  H1       -24.9150  -24.7810   -5.1680 H      12  IDS12       0.0938
     40  H1       -26.4170  -23.2440   -4.9360 H      12  IDS12       0.0580
     41  H3         6.6120    9.6060    1.9570 H       1  SGN1        0.0638
     42  H3         6.0900    8.2340    1.7750 H       1  SGN1        0.0000
     43  H4       -13.8430  -10.1640   -1.3040 H       7  SGN7        0.0649
     44  H4       -14.0620   -9.5030   -2.0560 H       7  SGN7        0.0194
     45  C4        -1.6290   -2.4090    1.3580 C.3     4  IDS4        0.1212
     46  C4        -2.1100   -2.1940    1.3680 C.3     4  IDS4       -0.0776
     47  O1       -14.9570  -15.4220   -1.1050 O.3     9  SGN9       -0.3410
     48  O1       -14.7480  -15.1130   -2.0780 O.3     9  SGN9       -0.3982
     49  H1        -8.0710   -5.6030    2.0510 H       6  IDS6        0.0938
     50  H1        -7.3650   -6.6640    1.6970 H       6  IDS6        0.0524
     51  O3        -0.8940    1.9380    3.5810 O.3     3  SGN3       -0.3874
     52  O3        -2.5310    2.2270    2.6220 O.3     3  SGN3       -0.3982
     53  O3S       -0.6310    6.0410    6.3670 O.3     3  SGN3       -0.0737
     54  O3S       -2.3310    6.5380    5.0820 O.3     3  SGN3       -0.2257
     55  H5       -25.2500  -25.5020   -1.6820 H      12  IDS12       0.0709
     56  H5       -25.4480  -24.9990   -1.9330 H      12  IDS12       0.0194
     57  O1       -12.0870  -11.3070   -1.3090 O.3     8  IDS8       -0.3402
     58  O1       -12.6590  -11.0580   -2.1400 O.3     8  IDS8       -0.4105
     59  O5S      -27.4880  -22.9790   -7.4970 O.3    11  SGN11      -0.0790
     60  O5S      -28.4290  -20.4940   -6.2990 O.2    11  SGN11      -0.1168
     61  S2       -18.7010  -19.6240    2.1010 S.O2    9  SGN9        0.2377
     62  S2       -16.5370  -19.8360    2.1280 S.O2    9  SGN9        0.2051
     63  O6S      -14.3560   -8.9480   -6.1150 O.3     7  SGN7       -0.0776
     64  O6S      -13.8720   -7.7190   -6.7530 O.2     7  SGN7       -0.1366
     65  H61       -0.5120    4.2730   -1.7990 H       3  SGN3        0.0601
     66  H61        0.1250    3.7340   -2.3960 H       3  SGN3        0.0194
     67  H61      -12.0860   -8.6010   -4.3570 H       7  SGN7        0.0601
     68  H61      -11.7100   -8.1300   -4.8190 H       7  SGN7        0.0548
     69  S1       -25.9710  -18.7840   -0.4870 S.3    11  SGN11      -0.0769
     70  S1       -25.0330  -20.1030    1.4180 S.O    11  SGN11       0.3650
     71  N         -0.4280    4.7280    4.3290 N.3     3  SGN3       -0.1767
     72  N         -1.7480    4.9570    3.3270 N.3     3  SGN3       -0.3327
     73  O6S      -25.7370  -21.9880   -8.7820 O.3    11  SGN11      -0.2731
     74  O6S      -26.7210  -19.3430   -7.5110 O.2    11  SGN11      -0.1168
     75  O4S      -20.0490  -19.1700    2.2610 O.3     9  SGN9       -0.0320
     76  O4S      -17.8610  -19.6480    2.6390 O.3     9  SGN9       -0.2312
     77  C2        -3.7210   -4.5860   -0.5200 C.3     5  SGN5        0.1016
     78  C2        -3.2490   -5.1180   -0.6040 C.3     5  SGN5       -0.0188
     79  H62      -18.9240  -16.8420    1.2060 H       9  SGN9        0.0611
     80  H62      -17.6450  -17.2830    1.2610 H       9  SGN9        0.0194
     81  S1         9.7320    8.1450   -0.6310 S.3     1  SGN1       -0.0198
     82  S1         9.9720    6.5010    1.0750 S.3     1  SGN1        0.3202
     83  C3        -5.1860   -4.1290   -0.4570 C.3     5  SGN5        0.1048
     84  C3        -4.7720   -4.9570   -0.7280 C.3     5  SGN5        0.0330
     85  H2       -23.2910  -26.1620   -2.9410 H      12  IDS12       0.0699
     86  H2       -24.4220  -24.6300   -5.7950 H      12  IDS12       0.0580
     87  H2         2.5250    9.0630    3.2270 H       2  IDS2        0.0699
     88  H2         1.8310    7.9100    4.0670 H       2  IDS2        0.0000
     89  O5        -0.9050    4.8480    0.6840 O.3     3  SGN3       -0.3414
     90  O5        -0.9410    4.6900   -0.2520 O.2     3  SGN3       -0.5095
     91  H62      -11.9190  -10.3620   -3.9660 H       7  SGN7        0.0601
     92  H62      -12.0120   -9.9080   -4.6540 H       7  SGN7        0.0548
     93  C2       -15.6380  -17.2310   -2.5490 C.3     9  SGN9        0.1026
     94  C2       -15.4130  -17.1260   -3.2220 C.3     9  SGN9       -0.0776
     95  C4         1.3690    6.8160    2.0150 C.3     2  IDS2        0.1267
     96  C4         1.3370    6.1280    1.1070 C.3     2  IDS2       -0.0776
     97  O1       -19.2010  -16.6600   -1.5990 O.3    10  IDS10      -0.3401
     98  O1       -18.6490  -17.4360   -1.3890 O.3    10  IDS10      -0.4105
     99  C3       -12.4420   -9.5270    0.2270 C.3     7  SGN7        0.0809
    100  C3       -12.6260   -9.4170   -0.4210 C.3     7  SGN7        0.0488
    101  C1        -8.2320   -5.0820    1.0800 C.3     6  IDS6        0.1912
    102  C1        -7.7340   -6.1340    0.7900 C.3     6  IDS6        0.0367
    103  C1         8.9910    8.2700    2.8030 C.3     1  SGN1        0.2120
    104  C1         8.1400    7.8900    3.7340 C.3     1  SGN1       -0.0776
    105  O1        -2.9140   -2.9130    1.0210 O.3     5  SGN5       -0.3410
    106  O1        -2.9110   -3.0160    0.5320 O.3     5  SGN5       -0.4105
    107  O1S      -26.3350  -17.8930   -1.5470 O.3    11  SGN11      -0.2864
    108  O1S      -25.6650  -18.8280    1.2410 O.3    11  SGN11      -0.0813
    109  C6        -0.7730    3.3860   -1.1750 C.3     3  SGN3        0.0969
    110  C6        -0.5150    2.9990   -1.8570 C.3     3  SGN3       -0.0776
    111  HO3      -23.4540  -28.7900   -4.3820 H      12  IDS12       0.2100
    112  HO3      -22.8570  -25.5810   -4.2000 H      12  IDS12       0.2052
    113  H2        -3.7340   -5.6920   -0.6760 H       5  SGN5        0.0547
    114  H2        -3.0470   -6.2120   -0.4910 H       5  SGN5        0.0386
    115  S        -21.4830  -25.9590   -5.0460 S.O2   12  IDS12       0.2080
    116  S        -26.5300  -25.2290   -7.5120 S.O    12  IDS12       0.3645
    117  C5        -0.3530    3.6010    0.2860 C.3     3  SGN3        0.1150
    118  C5        -0.5720    3.3230   -0.3570 C.3     3  SGN3       -0.0681
    119  S          2.8660    9.7850    5.8930 S.O2    2  IDS2        0.2080
    120  S          0.0160    6.3250    5.3720 S.O     2  IDS2        0.1635
    121  C3       -24.7620  -27.4690   -3.8470 C.3    12  IDS12       0.1202
    122  C3       -24.6870  -26.2070   -4.3200 C.3    12  IDS12      -0.0776
    123  H5        -5.0280   -3.3320    2.1700 H       5  SGN5        0.0647
    124  H5        -5.0170   -3.5750    1.6340 H       5  SGN5        0.0000
    125  H2        -2.0210    4.1960    3.0150 H       3  SGN3        0.0554
    126  H2        -2.8840    4.5610    1.5670 H       3  SGN3        0.0386
    127  N         -3.0010   -3.9180   -1.6050 N.3     5  SGN5       -0.2008
    128  N         -2.5590   -4.5840   -1.7780 N.3     5  SGN5       -0.3327
    129  O5         8.4210    7.5440    3.8520 O.3     1  SGN1       -0.3389
    130  O5         7.3050    7.5660    4.8070 O.3     1  SGN1       -0.4105
    131  S         -9.6640  -13.1590   -3.2810 S.O2    8  IDS8        0.2080
    132  S        -13.8550  -13.5420   -5.8850 S.3     8  IDS8        0.2818
    133  N        -24.8100  -19.7910   -1.0450 N.4    11  SGN11       0.4346
    134  N        -24.0730  -20.3060    0.1110 N.3    11  SGN11      -0.3437
    135  H5         3.1180    7.8870    1.1970 H       2  IDS2        0.0742
    136  H5         3.4850    6.3180    0.8350 H       2  IDS2        0.0000
    137  H3       -25.2490  -27.6050   -4.8420 H      12  IDS12       0.0650
    138  H3       -24.3010  -27.0360   -4.9590 H      12  IDS12       0.0194
    139  C1       -20.3050  -17.4940   -1.4010 C.3    10  IDS10       0.1912
    140  C1       -19.4150  -18.5250   -0.9620 C.3    10  IDS10       0.0361
    141  O62        4.0170    5.3900    0.0140 O.3     2  IDS2       -0.3856
    142  O62        2.4010    4.2730   -0.7950 O.2     2  IDS2       -0.4733
    143  C3         6.7020    8.5060    1.7870 C.3     1  SGN1        0.1056
    144  C3         6.3000    7.2070    2.1600 C.3     1  SGN1        0.0565
    145  O1       -24.0490  -23.8740   -3.5470 O.3    12  IDS12      -0.3402
    146  O1       -24.8090  -23.2690   -3.6620 O.3    12  IDS12      -0.4105
    147  O6         6.6340    5.8100    5.1560 O.3     1  SGN1       -0.2116
    148  O6         5.3030    6.2070    6.2380 O.3     1  SGN1       -0.3982
    149  C6       -20.5130  -19.4140   -4.5170 C.3    10  IDS10       0.2558
    150  C6       -20.6230  -19.8970   -4.1460 C.3    10  IDS10       0.1419
    151  H61        7.5060    7.3080    6.2500 H       1  SGN1        0.0611
    152  H61        5.6720    8.1690    6.7070 H       1  SGN1        0.0521
    153  O2S        8.8860    7.3170   -1.4400 O.3     1  SGN1       -0.2626
    154  O2S        9.4920    5.2560    0.5470 O.2     1  SGN1       -0.1067
    155  C5       -26.0530  -25.8840   -2.3590 C.3    12  IDS12       0.1813
    156  C5       -26.2700  -25.4680   -2.5190 C.3    12  IDS12      -0.0776
    157  O61      -15.3650  -14.2220    1.6040 O.3     8  IDS8       -0.1910
    158  O61      -16.1620  -12.2540    0.3700 O.3     8  IDS8       -0.2471
    159  O5        -2.0530   -0.0550    1.1030 O.3     4  IDS4       -0.3376
    160  O5        -3.0490   -0.1960    0.3570 O.3     4  IDS4       -0.3691
    161  C1        -0.4830    5.2850    1.9420 C.3     3  SGN3        0.1795
    162  C1        -0.8790    5.2000    1.0470 C.3     3  SGN3        0.2147
    163  S2       -26.0760  -22.9320   -7.7580 S.3    11  SGN11       0.3103
    164  S2       -27.0890  -20.5410   -6.8160 S.O2   11  SGN11       0.2256
    165  O1        -7.1680   -4.2040    0.8540 O.3     6  IDS6       -0.3401
    166  O1        -6.8270   -5.1240    0.4550 O.3     6  IDS6       -0.4105
    167  O62       -3.6410   -0.1070    3.2810 O.3     4  IDS4       -0.2880
    168  O62       -4.3340   -1.8860    3.1430 O.3     4  IDS4       -0.1653
    169  O1S       -9.5020  -13.0440   -4.7020 O.2     8  IDS8       -0.1181
    170  O1S      -12.5160  -13.4710   -6.3860 O.3     8  IDS8       -0.2827
    171  H61       -4.8860   -4.8700    4.1650 H       5  SGN5        0.0601
    172  H61       -4.7950   -4.5660    3.9450 H       5  SGN5        0.0521
    173  O3S      -13.0200   -6.0010    3.5290 O.3     7  SGN7       -0.1303
    174  O3S      -12.8120   -7.0370    3.5790 O.3     7  SGN7       -0.1165
    175  C4       -24.6780  -22.6030   -3.6220 C.3    11  SGN11       0.1146
    176  C4       -25.0940  -21.9680   -3.1730 C.3    11  SGN11      -0.0776
    177  H5       -13.0550  -13.1510    0.4900 H       8  IDS8        0.0681
    178  H5       -13.5920  -12.5120   -0.2980 H       8  IDS8        0.0000
    179  H4       -22.8640  -17.7460   -4.1860 H      10  IDS10       0.0652
    180  H4       -22.4420  -17.8830   -3.3010 H      10  IDS10       0.0524
    181  H2       -26.1270  -20.5540   -2.5390 H      11  SGN11       0.0200
    182  H2       -25.7740  -20.2190   -1.1790 H      11  SGN11       0.0054
    183  H1        -1.0130    6.2460    2.1310 H       3  SGN3        0.0927
    184  H1        -1.2200    6.2590    0.9820 H       3  SGN3        0.1153
    185  O1       -11.0450   -7.0400   -0.6040 O.3     7  SGN7       -0.3441
    186  O1       -10.6310   -7.1580   -0.8080 O.3     7  SGN7       -0.3547
    187  H4         0.7600    7.4690    1.3420 H       2  IDS2        0.0656
    188  H4         1.1270    6.4480    0.0590 H       2  IDS2        0.0194
    189  HO3      -12.1250   -4.1050    1.6650 H       6  IDS6        0.2100
    190  HO3       -9.2980   -3.1490   -0.0610 H       6  IDS6        0.2090
    191  O2S      -14.7580   -7.5080    2.9020 O.3     7  SGN7       -0.1303
    192  O2S      -14.4890   -8.2450    2.4040 O.3     7  SGN7       -0.1165
    193  H3       -10.8690   -5.9050    1.5290 H       6  IDS6        0.0649
    194  H3       -10.8640   -4.6890    0.0830 H       6  IDS6        0.0521
    195  HO3       -0.4640    2.0200    4.4140 H       3  SGN3        0.2100
    196  HO3       -2.3990    2.3360    3.5480 H       3  SGN3        0.2090
    197  O3S       10.3240    9.2180   -1.3800 O.3     1  SGN1       -0.2626
    198  O3S       10.7070    7.2590    0.1020 O.2     1  SGN1       -0.1067
    199  O3S       -1.2330   -3.8010   -3.2740 O.3     5  SGN5       -0.0822
    200  O3S       -0.6860   -4.5000   -3.3310 O.3     5  SGN5       -0.0233
    201  H5        -8.7000   -4.7510   -1.3650 H       6  IDS6        0.0680
    202  H5        -7.7200   -5.7870   -1.7700 H       6  IDS6        0.0615
    203  H4       -17.9880  -18.3690   -1.5560 H       9  SGN9        0.0650
    204  H4       -17.0540  -18.7660   -1.6650 H       9  SGN9        0.0194
    205  O6S      -17.9200  -19.5200    3.2980 O.2     9  SGN9       -0.1156
    206  O6S      -15.5120  -19.4860    3.0650 O.3     9  SGN9       -0.2312
    207  H4       -25.7660  -22.7090   -3.8460 H      11  SGN11       0.0649
    208  H4       -26.1960  -21.7850   -3.1480 H      11  SGN11       0.0194
    209  H1       -24.8350  -18.7480   -3.5710 H      11  SGN11       0.0895
    210  H1       -24.3260  -18.4390   -1.8570 H      11  SGN11       0.0871
    211  C1         3.8520    7.3260    3.5310 C.3     2  IDS2        0.1916
    212  C1         3.1220    6.2850    3.3920 C.3     2  IDS2        0.1455
    213  S        -21.6030  -14.5850    0.1630 S.O2   10  IDS10       0.2080
    214  S        -21.2820  -19.3990    1.9030 S.3    10  IDS10       0.2828
    215  S1        -1.4600    5.5330    5.3100 S.3     3  SGN3        0.0305
    216  S1        -2.8470    6.0580    3.8300 S.3     3  SGN3        0.2519
    217  H5       -22.8840  -21.6570   -4.4380 H      11  SGN11       0.0647
    218  H5       -23.2700  -21.1460   -4.0240 H      11  SGN11       0.0584
    219  O2S      -27.0500  -19.6220   -0.0520 O.3    11  SGN11      -0.2864
    220  O2S      -25.9660  -21.1890    1.4630 O.2    11  SGN11      -0.1915
    221  H62       -0.2780    2.4870   -1.6110 H       3  SGN3        0.0601
    222  H62       -0.1110    1.9760   -2.0360 H       3  SGN3        0.0000
    223  O5S       -4.3680    2.7150   -1.9470 O.3     3  SGN3       -0.2736
    224  O5S       -3.7000    2.9080   -3.8110 O.3     3  SGN3       -0.0872
    225  O1         4.8730    8.2490    3.2850 O.3     2  IDS2       -0.3401
    226  O1         4.1020    7.2300    3.0660 O.3     2  IDS2       -0.3696
    227  O6        -2.1730    3.2170   -1.2220 O.3     3  SGN3       -0.2554
    228  O6        -1.8200    3.0870   -2.3860 O.3     3  SGN3       -0.1330
    229  C4       -10.5530   -5.7080   -0.6390 C.3     6  IDS6        0.1214
    230  C4        -9.8090   -6.0860   -1.2400 C.3     6  IDS6        0.0394
    231  C5         7.1030    7.9500    4.1900 C.3     1  SGN1        0.1160
    232  C5         5.9260    7.7980    4.5590 C.3     1  SGN1       -0.0776
    233  S2         6.2090    4.6500    6.1120 S.O2    1  SGN1        0.2324
    234  S2         4.6630    5.4920    7.4700 S.O     1  SGN1        0.1652
    235  C5       -17.2280  -16.8070   -0.1970 C.3     9  SGN9        0.1159
    236  C5       -16.4280  -16.9660   -0.5440 C.3     9  SGN9        0.0330
    237  O5S       -6.2050   -8.7480    3.4320 O.3     5  SGN5       -0.1084
    238  O5S       -5.3210   -8.6900    4.0930 O.3     5  SGN5       -0.2337
    239  O1S      -21.8380  -14.6220    1.5800 O.2    10  IDS10      -0.1181
    240  O1S      -21.2750  -18.1850    2.6620 O.3    10  IDS10      -0.2827
    241  O6S        7.2270    4.5640    7.1170 O.2     1  SGN1       -0.1162
    242  O6S        5.2990    6.0420    8.6310 O.3     1  SGN1       -0.2440
    243  O1S        2.0830   -0.0440   -2.8700 O.2     4  IDS4       -0.1181
    244  O1S       -0.0010   -3.0200   -2.7990 O.3     4  IDS4       -0.0169
    245  C4       -25.8160  -27.3600   -2.7320 C.3    12  IDS12       0.1560
    246  C4       -25.7270  -26.6830   -3.2950 C.3    12  IDS12       0.0718
    247  O2S      -14.3630  -18.6170   -5.0740 O.3     9  SGN9       -0.1535
    248  O2S      -15.5630  -18.2720   -6.0470 O.3     9  SGN9       -0.2921
    249  C2         2.5640    8.1160    3.8190 C.3     2  IDS2        0.1684
    250  C2         1.7570    6.9830    3.4460 C.3     2  IDS2       -0.0776
    251  C5        -1.8090   -1.0530    2.0700 C.3     4  IDS4        0.1440
    252  C5        -2.8490   -0.8650    1.5880 C.3     4  IDS4        0.1316
    253  H61      -23.6570  -21.4960   -6.8350 H      11  SGN11       0.0601
    254  H61      -24.2910  -19.9620   -5.9940 H      11  SGN11       0.0607
    255  H4       -13.2880  -15.5150    0.1580 H       8  IDS8        0.0652
    256  H4       -13.3680  -14.9570   -0.5490 H       8  IDS8        0.0521
    257  O3S      -25.3480  -18.0830    0.6030 O.3    11  SGN11      -0.0960
    258  O3S      -24.1400  -20.1120    2.5430 O.3    11  SGN11      -0.0863
    259  H2       -14.0940   -8.1610    0.2490 H       7  SGN7        0.0214
    260  H2       -13.8870   -7.6710   -0.2900 H       7  SGN7        0.0336
    261  C6       -27.3400  -25.6410   -1.5770 C.3    12  IDS12       0.3949
    262  C6       -27.3470  -25.7970   -1.4900 C.3    12  IDS12       0.0720
    263  H4       -11.0690   -5.1180   -1.4340 H       6  IDS6        0.0652
    264  H4       -10.1650   -5.6520   -2.2050 H       6  IDS6        0.0524
    265  O3         5.9170    8.1810    0.6610 O.3     1  SGN1       -0.3874
    266  O3         5.9490    6.2890    1.1460 O.3     1  SGN1       -0.3938
    267  N        -12.6360   -7.5200    1.6660 N.4     7  SGN7        0.4463
    268  N        -12.3950   -7.5830    1.2360 N.3     7  SGN7       -0.3590
    269  H1       -20.2590  -17.9150   -0.3710 H      10  IDS10       0.0938
    270  H1       -18.8310  -19.1100   -0.2160 H      10  IDS10       0.0523
    271  O2         2.5290    8.4270    5.1980 O.3     2  IDS2       -0.2047
    272  O2         0.8440    6.0980    4.0670 O.3     2  IDS2       -0.4105
    273  H3         1.2920    6.3950    4.1710 H       2  IDS2        0.0649
    274  H3         0.1690    7.6990    2.0990 H       2  IDS2        0.0521
    275  H3        -1.5240   -2.1930   -0.8270 H       4  IDS4        0.0649
    276  H3        -0.2820   -2.8910    0.3740 H       4  IDS4        0.0000
    277  O62      -28.0320  -24.6700   -1.7830 O.3    12  IDS12      -0.1573
    278  O62      -27.6900  -26.9330   -1.2530 O.3    12  IDS12      -0.2329
    279  C3        -0.8380   -2.2280    0.0520 C.3     4  IDS4        0.1172
    280  C3        -0.7850   -1.9310    0.6460 C.3     4  IDS4       -0.0341
    281  H2        -9.4760   -3.3650    0.4610 H       6  IDS6        0.0699
    282  H2        -8.9530   -4.6490    1.8230 H       6  IDS6        0.0000
    283  O1S      -14.2340   -5.6210    1.5260 O.3     7  SGN7       -0.3133
    284  O1S      -14.0920   -5.9430    1.8950 O.3     7  SGN7       -0.4105
    285  C6       -15.1190  -13.3550    0.7980 C.3     8  IDS8        0.2882
    286  C6       -15.5600  -13.2230   -0.0330 C.3     8  IDS8        0.1448
    287  O4S      -25.5200  -24.2320   -7.9780 O.3    11  SGN11      -0.0790
    288  O4S      -26.8380  -21.7340   -7.5680 O.3    11  SGN11      -0.0778
    289  H5        -0.8860   -0.7650    2.6310 H       4  IDS4        0.0676
    290  H5        -2.2360   -0.2090    2.2480 H       4  IDS4        0.0641
    291  N          8.7480    8.8880    0.4440 N.3     1  SGN1       -0.1844
    292  N          8.6450    7.4040    1.3850 N.3     1  SGN1       -0.3279
    293  O2S        2.3240    0.8730   -0.6830 O.2     4  IDS4       -0.1181
    294  O2S       -2.2480   -2.9080   -3.5930 O.2     4  IDS4       -0.1156
    295  H4         6.0970    6.6430    2.7260 H       1  SGN1        0.0650
    296  H4         5.5400    5.8240    3.6530 H       1  SGN1        0.0194
    297  O3         0.0190   -3.3340   -0.1220 O.3     4  IDS4       -0.3863
    298  O3         0.0810   -1.2710    1.5450 O.3     4  IDS4       -0.4105
    299  C6         6.7240    7.1840    5.4650 C.3     1  SGN1        0.1076
    300  C6         5.2000    7.5710    5.8930 C.3     1  SGN1        0.0330
    301  C1        -3.0220   -4.2910    0.8170 C.3     5  SGN5        0.1788
    302  C1        -2.7490   -4.3990    0.6580 C.3     5  SGN5       -0.0776
    303  O5S        6.1720    3.4920    5.2620 O.2     1  SGN1       -0.1162
    304  O5S        4.9810    4.1050    7.2720 O.3     1  SGN1       -0.4105
    305  C5       -12.1650   -9.0570   -2.2110 C.3     7  SGN7        0.1147
    306  C5       -12.0940   -8.7860   -2.7650 C.3     7  SGN7       -0.0776
    307  O3        -5.8560   -4.5580   -1.6220 O.3     5  SGN5       -0.3874
    308  O3        -5.2380   -5.7610   -1.7910 O.3     5  SGN5       -0.3982
    309  S1       -13.6530  -17.6550   -4.2810 S.3     9  SGN9        0.2358
    310  S1       -14.5330  -17.3260   -5.7390 S.3     9  SGN9        0.2137
    311  O3S      -12.8540  -16.7700   -5.0820 O.3     9  SGN9       -0.0906
    312  O3S      -14.3440  -16.3720   -6.7980 O.3     9  SGN9       -0.1001
    313  O2S       -9.4700  -11.9110   -2.6060 O.2     8  IDS8       -0.1181
    314  O2S      -14.5140  -14.7400   -6.3220 O.3     8  IDS8       -0.0897
    315  C2       -25.0350  -20.4940   -2.3080 C.3    11  SGN11       0.0301
    316  C2       -24.6820  -20.4590   -1.2100 C.3    11  SGN11      -0.0748
    317  O61      -21.1480  -19.5660   -5.5350 O.3    10  IDS10      -0.1941
    318  O61      -19.6190  -20.3890   -4.6060 O.3    10  IDS10      -0.4105
    319  H62        5.7490    7.5350    5.8750 H       1  SGN1        0.0611
    320  H62        4.1240    7.8540    5.8210 H       1  SGN1        0.0521
    321  HN        -3.6330   -3.4260   -2.2260 H       5  SGN5        0.1404
    322  HN        -3.2050   -4.3790   -2.5310 H       5  SGN5        0.1180
    323  C4        -5.8710   -4.7730    0.7580 C.3     5  SGN5        0.1175
    324  C4        -5.4460   -5.4340    0.5660 C.3     5  SGN5       -0.0776
    325  S         -9.4010   -2.3810    3.0620 S.O2    6  IDS6        0.2080
    326  S        -10.5410   -6.4450    3.1540 S.3     6  IDS6        0.3202
    327  O4S        4.9190    4.9800    6.6370 O.3     1  SGN1       -0.0461
    328  O4S        3.2550    5.7380    7.4230 O.2     1  SGN1       -0.1348
    329  O2S      -20.2450  -14.2670   -0.1570 O.2    10  IDS10      -0.1181
    330  O2S      -22.4820  -20.1540    2.1340 O.3    10  IDS10      -0.0891
    331  H1       -14.0860  -17.3020   -1.0420 H       9  SGN9        0.0927
    332  H1       -13.5730  -16.7680   -2.1660 H       9  SGN9        0.0194
    333  O5        -8.3060   -6.1030    0.1250 O.3     6  IDS6       -0.3372
    334  O5        -7.8680   -7.1110   -0.2010 O.3     6  IDS6       -0.3775
    335  H5       -11.0580   -8.9820   -2.0840 H       7  SGN7        0.0647
    336  H5       -11.0220   -9.0210   -2.5700 H       7  SGN7        0.0194
    337  S2        -6.2290   -7.5090    4.1590 S.3     5  SGN5        0.2795
    338  S2        -5.6360   -7.3490    4.5010 S.2     5  SGN5        0.2278
    339  C3        -0.3600    2.8820    2.6780 C.3     3  SGN3        0.1055
    340  C3        -1.5340    2.9330    1.9150 C.3     3  SGN3        0.0330
    341  O1S       10.7160    7.4080    0.1020 O.3     1  SGN1       -0.2626
    342  O1S       10.7050    6.3540    2.2940 O.2     1  SGN1       -0.1067
    343  O2S       -2.4050    4.5610    5.7760 O.3     3  SGN3       -0.2557
    344  O2S       -4.0810    5.3450    3.9880 O.2     3  SGN3       -0.1259
    345  C3       -24.5170  -21.9380   -2.2450 C.3    11  SGN11       0.0796
    346  C3       -24.5330  -21.8910   -1.7450 C.3    11  SGN11      -0.0776
    347  O2S       -2.7050   -5.6770   -3.2930 O.3     5  SGN5       -0.1165
    348  O2S       -1.7880   -6.5840   -2.9780 O.3     5  SGN5       -0.2344
    349  C4        -0.7990    2.4950    1.2580 C.3     3  SGN3        0.1176
    350  C4        -1.5480    2.4510    0.4570 C.3     3  SGN3       -0.0681
    351  O3       -11.9000   -4.3090    0.7740 O.3     6  IDS6       -0.3863
    352  O3        -9.1550   -3.8690   -0.6490 O.3     6  IDS6       -0.3982
    353  C4       -12.7390  -10.0520   -1.1850 C.3     7  SGN7        0.1147
    354  C4       -12.9750   -9.6980   -1.8910 C.3     7  SGN7       -0.0776
    355  O4S      -14.0200  -11.2550   -5.5740 O.3     7  SGN7       -0.0786
    356  O4S      -14.0500  -10.0910   -6.4860 O.3     7  SGN7       -0.0776
    357  H5         0.7590    3.6910    0.3020 H       3  SGN3        0.0647
    358  H5         0.4620    3.2070    0.0480 H       3  SGN3        0.0227
    359  H62       -6.5880   -4.6590    3.5830 H       5  SGN5        0.0601
    360  H62       -6.4430   -4.8290    3.2390 H       5  SGN5        0.0000
    361  O5         3.6910    6.4050    2.4910 O.3     2  IDS2       -0.3314
    362  O5         3.0830    5.1980    2.5150 O.3     2  IDS2       -0.3424
    363  HO3      -11.5080  -16.0940   -2.7130 H       8  IDS8        0.2100
    364  HO3      -10.7170  -13.4390   -2.0480 H       8  IDS8        0.0000
    365  C6       -12.4330   -9.4160   -3.6790 C.3     7  SGN7        0.0970
    366  C6       -12.3090   -8.9010   -4.2780 C.3     7  SGN7        0.0662
    367  H5       -17.1900  -15.6910   -0.1560 H       9  SGN9        0.0648
    368  H5       -16.6840  -15.8820   -0.5340 H       9  SGN9        0.0521
    369  C6        -5.5840   -5.0640    3.3160 C.3     5  SGN5        0.0958
    370  C6        -5.3610   -5.0780    3.1330 C.3     5  SGN5        0.0330
    371  O6       -13.8240   -9.5670   -3.8600 O.3     7  SGN7       -0.2545
    372  O6       -13.6700   -8.6740   -4.5650 O.3     7  SGN7       -0.2334
    373  H3         0.7530    2.8460    2.7710 H       3  SGN3        0.0638
    374  H3        -0.5540    2.7040    2.3980 H       3  SGN3        0.0521
    375  H3       -11.3460   -9.5700    0.4410 H       7  SGN7        0.0607
    376  H3       -11.5840   -9.7520   -0.2000 H       7  SGN7        0.0559
    377  C4       -13.7020  -14.9060   -0.6830 C.3     8  IDS8        0.1217
    378  C4       -13.7200  -14.3740   -1.4340 C.3     8  IDS8        0.0330
    379  HO3      -24.2090  -16.4020   -1.3340 H      10  IDS10       0.2100
    380  HO3      -21.0770  -15.5590   -1.2260 H      10  IDS10       0.0000
    381  O5       -26.0290  -25.1020   -3.5360 O.3    12  IDS12      -0.3343
    382  O5       -26.7910  -24.4970   -3.4090 O.3    12  IDS12      -0.3928
    383  C2        -0.0120   -0.9390    0.0930 C.3     4  IDS4        0.1684
    384  C2        -0.9970   -1.0430   -0.5850 C.3     4  IDS4        0.1102
    385  O6       -25.4630  -22.3800   -6.4320 O.3    11  SGN11      -0.2549
    386  O6       -26.1890  -20.5940   -5.5390 O.3    11  SGN11      -0.2125
    387  C6         3.0170    6.0470    0.1980 C.2     2  IDS2        0.3445
    388  C6         2.9940    4.3650    0.2550 C.3     2  IDS2        0.4330
    389  O5       -20.3040  -18.6060   -2.2500 O.3    10  IDS10      -0.3372
    390  O5       -19.7440  -19.4230   -1.9820 O.3    10  IDS10      -0.3862
    391  C6        -8.7400   -6.6820   -2.1790 C.3     6  IDS6        0.2591
    392  C6        -8.2470   -7.6740   -2.5150 C.3     6  IDS6        0.3032
    393  O2S       -8.0890   -1.9960    2.6370 O.2     6  IDS6       -0.1181
    394  O2S      -11.1860   -7.7190    3.2960 O.2     6  IDS6       -0.1067
    395  O3       -23.9610  -28.6060   -3.6090 O.3    12  IDS12      -0.3862
    396  O3       -23.5630  -25.7430   -3.5990 O.3    12  IDS12      -0.4105
    397  S1       -13.7450   -6.6030    2.4450 S.3     7  SGN7        0.1471
    398  S1       -13.5300   -7.1860    2.3440 S.3     7  SGN7        0.2303
    399  O3       -23.8990  -16.7010   -2.1720 O.3    10  IDS10      -0.3863
    400  O3       -21.0970  -16.2340   -1.8820 O.3    10  IDS10      -0.4105
    401  H2       -21.4310  -15.8320   -2.3180 H      10  IDS10       0.0699
    402  H2       -20.4150  -17.1900    0.4460 H      10  IDS10       0.0571
    403  O3         0.1620    8.0320    3.6970 O.3     2  IDS2       -0.3863
    404  O3         1.9870    8.3860    1.5140 O.3     2  IDS2       -0.3982
    405  S2        -3.0460    2.9010   -2.4790 S.3     3  SGN3        0.3018
    406  S2        -2.2700    2.7760   -3.8500 S.3     3  SGN3        0.2976
    407  S          2.0770   -0.3040   -1.4580 S.O2    4  IDS4        0.2080
    408  S         -1.1550   -2.1960   -2.9980 S.O2    4  IDS4        0.2391
    409  O3       -25.2840  -22.6670   -1.3110 O.3    11  SGN11      -0.3905
    410  O3       -25.2620  -22.7770   -0.9260 O.3    11  SGN11      -0.4105
    411  H2         8.1440    7.0110    1.2560 H       1  SGN1        0.0555
    412  H2         7.9290    5.9560    2.7770 H       1  SGN1        0.0444
    413  C1       -12.8230  -12.3500   -1.8790 C.3     8  IDS8        0.1912
    414  C1       -13.6210  -11.8190   -2.8150 C.3     8  IDS8        0.0361
    415  H3       -22.9950  -18.2260   -1.1540 H      10  IDS10       0.0649
    416  H3       -22.6100  -17.0680   -0.8450 H      10  IDS10       0.0252
    417  O62      -19.5390  -20.1130   -4.3510 O.3    10  IDS10      -0.3588
    418  O62      -21.6780  -20.2460   -4.6210 O.3    10  IDS10      -0.2262
    419  C6       -17.9080  -17.2880    1.0930 C.3     9  SGN9        0.1077
    420  C6       -16.6130  -17.4800    0.8890 C.3     9  SGN9       -0.0776
    421  O3S      -22.5560  -13.7730   -0.5350 O.3    10  IDS10      -0.2311
    422  O3S      -20.1000  -20.1880    2.0720 O.3    10  IDS10      -0.0791
    423  O2S      -21.3280  -24.6510   -4.4870 O.2    12  IDS12      -0.1181
    424  O2S      -27.2380  -26.3700   -8.0170 O.2    12  IDS12      -0.1915
    425  C3       -12.7720  -14.8720   -1.9080 C.3     8  IDS8        0.1172
    426  C3       -12.5280  -14.0610   -2.3490 C.3     8  IDS8       -0.0776
    427  HN         8.0450    9.4240   -0.0530 H       1  SGN1        0.1485
    428  HN         8.1110    7.5280    0.5320 H       1  SGN1        0.1183
    429  C4         6.1600    7.7250    2.9940 C.3     1  SGN1        0.1176
    430  C4         5.4430    6.9060    3.4000 C.3     1  SGN1       -0.0776
    431  O3S        1.7700   10.6580    5.5870 O.3     2  IDS2       -0.2311
    432  O3S        0.9590    6.5990    6.4140 O.3     2  IDS2       -0.2440
    433  H4        -1.1180   -3.0880    2.0840 H       4  IDS4        0.0652
    434  H4        -1.9170   -2.6740    2.3580 H       4  IDS4        0.0194
    435  H4        -5.9330   -5.8760    0.5950 H       5  SGN5        0.0650
    436  H4        -5.2920   -6.5350    0.6710 H       5  SGN5        0.0194
    437  O4S       -2.5270    1.7050   -3.0710 O.3     3  SGN3       -0.0795
    438  O4S       -1.8540    1.4410   -4.1500 O.3     3  SGN3       -0.0872
    439  O61       -9.4780   -6.7470   -3.1360 O.3     6  IDS6       -0.1893
    440  O61       -7.4020   -8.5370   -2.4510 O.3     6  IDS6       -0.3434
    441  H5       -20.5070  -17.4100   -3.9020 H      10  IDS10       0.0680
    442  H5       -19.9830  -18.0100   -3.4560 H      10  IDS10       0.0000
    443  H62      -23.5770  -23.2100   -6.2530 H      11  SGN11       0.0601
    444  H62      -24.5520  -21.7550   -6.0470 H      11  SGN11       0.0000
    445  O4       -27.0340  -27.8980   -3.2290 O.3    12  IDS12      -0.2261
    446  O4       -26.8340  -27.3510   -3.8840 O.3    12  IDS12      -0.2376
    447  H1        -2.0140   -4.7650    0.7990 H       5  SGN5        0.0927
    448  H1        -1.6750   -4.6570    0.8080 H       5  SGN5        0.0000
    449  C5       -20.9250  -18.3620   -3.4950 C.3    10  IDS10       0.1489
    450  C5       -20.5360  -18.8730   -3.0200 C.3    10  IDS10       0.0361
    451  O6S       -2.9520    4.0470   -3.3330 O.3     3  SGN3       -0.0795
    452  O6S       -1.6490    3.7650   -4.6800 O.3     3  SGN3       -0.2820
    453  HO3        0.3500   -3.3300   -1.0030 H       4  IDS4        0.2100
    454  HO3        0.9480   -1.2520    1.1780 H       4  IDS4        0.2052
    455  O6S       -5.3250   -7.5060    5.2700 O.3     5  SGN5       -0.1084
    456  O6S       -4.8600   -6.9170    5.6260 O.3     5  SGN5       -0.2337
    457  H3        -5.2650   -3.0160   -0.4100 H       5  SGN5        0.0638
    458  H3        -5.0540   -3.9000   -0.9550 H       5  SGN5        0.0521
    459  C5       -13.9200  -13.4820   -0.1350 C.3     8  IDS8        0.1518
    460  C5       -14.3360  -13.0550   -0.9280 C.3     8  IDS8        0.0361
    461  O1        -0.1470    1.2750    0.9380 O.3     4  IDS4       -0.3401
    462  O1        -1.1060    1.1020    0.4600 O.3     4  IDS4       -0.4105
    463  O1S      -21.1700  -25.9980   -6.4470 O.2    12  IDS12      -0.1181
    464  O1S      -25.2810  -25.0480   -8.1880 O.3    12  IDS12      -0.0854
    465  HN         0.0160    3.9770    4.8450 H       3  SGN3        0.1492
    466  HN        -1.6760    4.2100    4.0090 H       3  SGN3        0.1180
    467  C5        -5.0540   -4.4390    2.0180 C.3     5  SGN5        0.1149
    468  C5        -4.8290   -4.6700    1.7510 C.3     5  SGN5       -0.0776
    469  H4        -1.9090    2.3670    1.2460 H       3  SGN3        0.0650
    470  H4        -2.5880    2.5290    0.0610 H       3  SGN3        0.0227
    471  C2       -23.8840  -26.2170   -3.8860 C.3    12  IDS12       0.1685
    472  C2       -25.2410  -25.0550   -5.1650 C.3    12  IDS12       0.0673
    473  O1S       -1.0460   -5.4540   -1.5820 O.3     5  SGN5       -0.1165
    474  O1S       -0.3720   -5.6580   -1.2850 O.3     5  SGN5       -0.2344
    475  O3       -11.9310  -16.0030   -1.8770 O.3     8  IDS8       -0.3863
    476  O3       -11.5100  -13.5060   -1.5430 O.3     8  IDS8       -0.4105
    477  O2         0.6160   -0.7730   -1.1620 O.3     4  IDS4       -0.2047
    478  O2        -1.6640   -1.8040   -1.5740 O.3     4  IDS4       -0.2085
    479  O2       -21.8730  -16.0500   -0.3070 O.3    10  IDS10      -0.2047
    480  O2       -21.3350  -19.0350    0.3850 O.3    10  IDS10      -0.2674
    481  O1       -22.9770  -19.5720   -3.1680 O.3    11  SGN11      -0.3441
    482  O1       -22.6350  -19.5430   -2.0860 O.3    11  SGN11      -0.3572
    483  O5       -24.5170  -20.4150   -4.6580 O.3    11  SGN11      -0.3446
    484  O5       -24.5440  -19.6230   -3.4690 O.3    11  SGN11      -0.3517
    485  C2       -11.9220  -13.5980   -1.9090 C.3     8  IDS8        0.1684
    486  C2       -12.9180  -13.0400   -3.4220 C.3     8  IDS8        0.0558
    487  C2       -21.5730  -16.6370   -1.5570 C.3    10  IDS10       0.1684
    488  C2       -20.6840  -17.9810   -0.2960 C.3    10  IDS10       0.0642
    489  H3       -23.4520  -21.9770   -1.9110 H      11  SGN11       0.0606
    490  H3       -23.4670  -22.2230   -1.7280 H      11  SGN11       0.0000
    491  H1        -1.3220    0.6540   -0.6220 H       4  IDS4        0.0938
    492  H1        -2.1650    0.6580   -1.2390 H       4  IDS4        0.0586
    493  H2         0.7690   -1.0360    0.8860 H       4  IDS4        0.0699
    494  H2        -0.0090   -0.7160   -0.9930 H       4  IDS4        0.0641
    495  O5       -12.7230   -7.7680   -2.0020 O.3     7  SGN7       -0.3445
    496  O5       -12.3170   -7.4250   -2.4340 O.3     7  SGN7       -0.3669
    497  H2       -11.2330  -13.6250   -1.0300 H       8  IDS8        0.0699
    498  H2       -12.0040  -12.7160   -3.9770 H       8  IDS8        0.0538
    499  H5         7.1280    9.0360    4.4510 H       1  SGN1        0.0648
    500  H5         5.7950    8.8720    4.2880 H       1  SGN1        0.0194
    501  C2        -9.5240   -4.2470    1.1450 C.3     6  IDS6        0.1684
    502  C2        -9.0930   -5.4990    1.1100 C.3     6  IDS6        0.0330
    503  O3S       -8.8970  -14.2320   -2.7200 O.3     8  IDS8       -0.2311
    504  O3S      -14.6280  -12.3660   -6.1500 O.3     8  IDS8       -0.0881
    505  O6       -18.0170  -18.6940    1.0480 O.3     9  SGN9       -0.2112
    506  O6       -16.3620  -18.8680    0.9120 O.2     9  SGN9       -0.1183
    507  C3       -22.7600  -17.5090   -1.9770 C.3    10  IDS10       0.1172
    508  C3       -21.6610  -17.4030   -1.3250 C.3    10  IDS10      -0.0402
    509  C5        -9.0590   -5.7500   -1.0160 C.3     6  IDS6        0.1491
    510  C5        -8.3790   -6.6170   -1.4250 C.3     6  IDS6        0.1068
    511  H61      -17.3000  -17.0180    1.9880 H       9  SGN9        0.0611
    512  H61      -15.8870  -16.9890    1.5790 H       9  SGN9        0.0194
    513  H3       -13.3590  -14.9180   -2.8560 H       8  IDS8        0.0649
    514  H3       -12.0770  -14.9760   -2.7980 H       8  IDS8        0.0194
    515  O6        -5.6760   -6.4610    3.1410 O.3     5  SGN5       -0.2645
    516  O6        -5.1830   -6.4680    3.2920 O.3     5  SGN5       -0.3982
    517  HN       -24.5290  -20.4290   -0.3080 H      11  SGN11      -0.0453
    518  HN       -23.3510  -20.9980    0.2790 H      11  SGN11       0.1146
    519  O3S        2.9170   -1.4100   -1.0950 O.3     4  IDS4       -0.2311
    520  O3S       -0.8590   -0.9700   -3.6780 O.2     4  IDS4       -0.1156
    521  O1S       -9.4840   -2.5670    4.4840 O.2     6  IDS6       -0.1181
    522  O1S      -11.4710   -5.3540    3.1410 O.2     6  IDS6       -0.1067
    523  O5        -3.7180   -4.8970    1.8670 O.3     5  SGN5       -0.3414
    524  O5        -3.4240   -4.8780    1.7840 O.3     5  SGN5       -0.4105
    525  C5       -23.9730  -21.7270   -4.6740 C.3    11  SGN11       0.1147
    526  C5       -24.3610  -20.9170   -4.0220 C.3    11  SGN11       0.0761
    527  C4       -17.9160  -17.2560   -1.4980 C.3     9  SGN9        0.1176
    528  C4       -17.2700  -17.6710   -1.6220 C.3     9  SGN9       -0.0776
    529  C5         2.8130    6.8500    1.4780 C.3     2  IDS2        0.1867
    530  C5         2.7570    5.5500    1.1820 C.3     2  IDS2        0.1686
    531  N        -14.7900  -16.6900   -3.6110 N.3     9  SGN9       -0.1936
    532  N        -15.0200  -16.4430   -4.4540 N.3     9  SGN9       -0.2271
    533  C3       -17.0890  -16.7500   -2.6900 C.3     9  SGN9        0.1049
    534  C3       -16.9270  -17.0310   -2.9750 C.3     9  SGN9       -0.0776
    535  H3       -17.1440  -15.6370   -2.7640 H       9  SGN9        0.0638
    536  H3       -17.2790  -15.9710   -3.0050 H       9  SGN9        0.0194
    537  H4       -25.5100  -27.8840   -1.7930 H      12  IDS12       0.0684
    538  H4       -25.2440  -27.3740   -2.5670 H      12  IDS12       0.0555
    539  O61       -3.0460   -2.0020    3.8680 O.3     4  IDS4       -0.1948
    540  O61       -5.0850   -0.2370    2.1370 O.3     4  IDS4       -0.3392
    541  H1       -12.9480   -6.2280   -0.7230 H       7  SGN7        0.0895
    542  H1       -12.3030   -6.0200   -0.9930 H       7  SGN7        0.0908
    543  HO3      -17.3030  -16.8210   -4.6180 H       9  SGN9        0.2100
    544  HO3      -17.6020  -17.2120   -4.7760 H       9  SGN9        0.2052
    545  C1       -12.4250   -7.2120   -0.7560 C.3     7  SGN7        0.1552
    546  C1       -11.9910   -7.0810   -1.1200 C.3     7  SGN7        0.1578
    547  O5S      -18.6330  -20.9310    1.5080 O.2     9  SGN9       -0.1156
    548  O5S      -16.3500  -21.1440    1.5650 O.2     9  SGN9       -0.1183
    549  C2        -0.9050    4.2760    3.0220 C.3     3  SGN3        0.1085
    550  C2        -1.8470    4.4350    1.9630 C.3     3  SGN3       -0.0188
    551  C6       -24.0950  -22.2320   -6.1190 C.3    11  SGN11       0.0969
    552  C6       -24.7960  -20.8210   -5.4910 C.3    11  SGN11       0.1023
    553  C3         1.3320    7.2730    3.4830 C.3     2  IDS2        0.1176
    554  C3         1.2200    7.3300    2.0520 C.3     2  IDS2        0.0330
    555  HO3      -25.0310  -22.4230   -0.4380 H      11  SGN11       0.2098
    556  HO3      -24.7850  -22.9170   -0.1270 H      11  SGN11       0.0000
    557  O4S       -7.5590   -7.1090    4.5060 O.3     5  SGN5       -0.2828
    558  O4S       -7.0440   -7.1500    4.6710 O.2     5  SGN5       -0.2278
    559  C2         8.1580    8.0960    1.5240 C.3     1  SGN1        0.1106
    560  C2         7.7860    7.0320    2.5100 C.3     1  SGN1        0.0164
    561  O1S        2.9400    9.4550    7.2890 O.2     2  IDS2       -0.1181
    562  O1S       -0.8620    7.4240    5.1050 O.2     2  IDS2       -0.1349
    563  O2       -11.1600  -13.5710   -3.0990 O.3     8  IDS8       -0.2047
    564  O2       -13.7980  -13.6710   -4.3310 O.3     8  IDS8       -0.2704
    565  H1         4.1250    6.7150    4.4210 H       2  IDS2        0.0939
    566  H1         3.3480    5.8640    4.3970 H       2  IDS2        0.0869
    567  O62      -15.8440  -12.3880    0.7700 O.3     8  IDS8       -0.1938
    568  O62      -15.9660  -14.3090    0.3100 O.3     8  IDS8       -0.2260
    569  O3S      -20.8070  -26.9810   -4.3010 O.3    12  IDS12      -0.2311
    570  O3S      -27.3420  -24.0480   -7.4850 O.3    12  IDS12      -0.0854
    571  O3       -13.0930  -10.3640    1.1570 O.3     7  SGN7       -0.3904
    572  O3       -13.4930  -10.1700    0.3980 O.3     7  SGN7       -0.3948
    573  HO3      -12.7510  -10.2040    2.0190 H       7  SGN7        0.2098
    574  HO3      -13.1400  -10.1950    1.2700 H       7  SGN7        0.2094
    575  C1       -24.7480  -24.9590   -4.0820 C.3    12  IDS12       0.1913
    576  C1       -25.8530  -23.9540   -4.2910 C.3    12  IDS12       0.0673
    577  H1       -13.1080  -12.0670   -2.9170 H       8  IDS8        0.0938
    578  H1       -14.0620  -11.2050   -3.6300 H       8  IDS8        0.0523
    579  O3S      -10.4350   -1.5270    2.5550 O.3     6  IDS6       -0.2311
    580  O3S       -9.4710   -6.2620    4.0880 O.2     6  IDS6       -0.1067
    581  O62       -7.7440   -7.3690   -2.1880 O.3     6  IDS6       -0.2874
    582  O62       -8.9760   -7.6640   -3.4780 O.3     6  IDS6       -0.1704
    583  HO3        6.0800    8.8030   -0.0260 H       1  SGN1        0.2100
    584  HO3        6.2900    6.5880    0.3230 H       1  SGN1        0.2095
    585  C1        -0.9230    0.2760    0.3460 C.3     4  IDS4        0.1912
    586  C1        -1.8640    0.1850   -0.2780 C.3     4  IDS4        0.0763
    587  O1S       -2.0600    6.5910    4.5540 O.3     3  SGN3       -0.0797
    588  O1S       -2.9150    7.1010    2.8530 O.2     3  SGN3       -0.1259
    589  H1         9.9990    7.8260    2.6300 H       1  SGN1        0.0957
    590  H1         9.1740    7.6300    4.0570 H       1  SGN1        0.0000
    591  HO3        0.0330    8.1400    4.6240 H       2  IDS2        0.2100
    592  HO3        1.7960    9.1760    1.9880 H       2  IDS2        0.2090
    593  C2       -12.9850   -8.0970    0.3680 C.3     7  SGN7        0.0410
    594  C2       -12.8100   -7.9220   -0.1240 C.3     7  SGN7        0.0214
    595  HN       -12.2680   -8.2200    2.3000 H       7  SGN7       -0.0303
    596  HN       -11.7250   -8.2490    1.6080 H       7  SGN7        0.1004
    597  HO3       -5.6060   -4.0130   -2.3480 H       5  SGN5        0.2100
    598  HO3       -5.0190   -5.3550   -2.6110 H       5  SGN5        0.2090
    599  O1         9.1010    9.6270    3.1370 O.3     1  SGN1       -0.2037
    600  O1         8.0480    9.2540    3.4220 O.3     1  SGN1       -0.2475
    601  O1         0.9020    5.4750    1.9650 O.3     3  SGN3       -0.3406
    602  O1         0.4250    5.1320    1.5480 O.2     3  SGN3       -0.5095
    603 H           0.0877    5.6186    5.3355 H       2  IDS2        0.2446
    604 H         -10.6431   -6.7018    1.1569 H       6  IDS6        0.2090
    605 H         -16.0070  -10.0064   -3.7996 H       7  SGN7        0.2336
    606 H         -16.2846   -8.7349   -6.4754 H       7  SGN7        0.2453
    607 H           0.0920   -5.3950   -2.3690 H       5  SGN5        0.0980
    608 H          -1.7213   -6.6733   -2.2682 H       5  SGN5        0.0980
    609 H           4.2668    3.5400    1.3391 H       2  IDS2        0.2913
    610 H         -13.2439  -17.9551   -2.3687 H       9  SGN9        0.2325
    611 H          -2.5067   -0.9678    2.1424 H       4  IDS4        0.0969
    612 H          -9.3356   -5.3598    0.7393 H       6  IDS6        0.0521
    613 H          -9.8078   -5.8087   -0.8588 H       6  IDS6        0.0521
    614 H         -15.1006  -16.3854   -3.0019 H       9  SGN9        0.0194
    615 H         -14.7310  -15.5937   -1.4887 H       9  SGN9        0.0194
    616 H         -15.1454  -17.2910   -1.5083 H       9  SGN9        0.0194
    617 H         -17.2483  -17.2111   -3.2566 H       9  SGN9        0.2052
    618 H         -24.4144  -20.2569   -1.5786 H      11  SGN11       0.0871
    619 H         -25.8603  -26.2736   -6.5742 H      12  IDS12       0.2095
    620 H         -21.7967  -17.7307   -1.6410 H      10  IDS10       0.0524
    621 H         -20.9187  -18.6829   -2.8039 H      10  IDS10       0.0524
    622 H         -14.8062  -18.0356   -0.8497 H       9  SGN9        0.2090
    623 H           6.7100    8.2340    1.7750 H       1  SGN1        0.0000
    624 H          -1.3121   -2.4303    0.6954 H       4  IDS4        0.0194
    625 H          -2.1697   -1.1329    1.4917 H       4  IDS4        0.0194
    626 H          -3.0331   -2.5590    0.9685 H       4  IDS4        0.0194
    627 H         -15.0655  -14.6196   -2.8504 H       9  SGN9        0.2090
    628 H          -3.0378    7.1988    5.1504 H       3  SGN3        0.2554
    629 H         -11.6890  -11.0580   -2.1400 H       8  IDS8        0.2052
    630 H         -12.9823  -11.5382   -1.3617 H       8  IDS8        0.2052
    631 H          -2.5797    5.5115    3.5302 H       3  SGN3        0.1180
    632 H         -25.0695  -22.3747   -9.3701 H      11  SGN11       0.2336
    633 H         -18.5079  -19.9008    1.9618 H       9  SGN9        0.2469
    634 H          -4.3021   -4.9648   -0.7155 H       5  SGN5        0.0386
    635 H          -2.8904   -4.6100    0.2668 H       5  SGN5        0.0386
    636 H          -3.7085   -5.0413   -0.6459 H       5  SGN5        0.0521
    637 H          -5.2056   -5.2708    0.1985 H       5  SGN5        0.0521
    638 H           2.4510    7.9100    4.0670 H       2  IDS2        0.0000
    639 H          -1.7579    4.6743   -0.7107 H       3  SGN3        0.2869
    640 H         -16.1395  -16.9672   -2.4526 H       9  SGN9        0.0194
    641 H         -15.8216  -16.8287   -4.1652 H       9  SGN9        0.0194
    642 H         -14.5391  -16.5451   -3.0128 H       9  SGN9        0.0194
    643 H           2.3804    5.9159    1.2129 H       2  IDS2        0.0194
    644 H           0.7698    5.2491    1.3320 H       2  IDS2        0.0194
    645 H           1.0622    6.9121    1.7812 H       2  IDS2        0.0194
    646 H         -17.6790  -17.4360   -1.3890 H      10  IDS10       0.2052
    647 H         -18.9723  -16.6557   -1.8659 H      10  IDS10       0.2052
    648 H         -12.8381   -9.5664   -1.4591 H       7  SGN7        0.0559
    649 H          -8.6792   -5.6732    0.9877 H       6  IDS6        0.0524
    650 H          -7.0601   -5.3598    0.4878 H       6  IDS6        0.0524
    651 H           9.2100    7.8900    3.7340 H       1  SGN1        0.0194
    652 H           7.7833    7.1503    3.0480 H       1  SGN1        0.0194
    653 H           7.7833    8.8539    3.4364 H       1  SGN1        0.0194
    654 H           7.7833    7.6658    4.7176 H       1  SGN1        0.0194
    655 H          -1.9410   -3.0160    0.5320 H       5  SGN5        0.2052
    656 H          -3.2343   -2.2409    1.0174 H       5  SGN5        0.2052
    657 H         -26.7513  -18.3965   -2.2640 H      11  SGN11       0.2405
    658 H          -0.1788    2.0067   -2.0740 H       3  SGN3        0.0194
    659 H          -1.5305    3.1092   -2.1756 H       3  SGN3        0.0194
    660 H          -0.4506    3.1750   -0.8035 H       3  SGN3        0.0194
    661 H          -0.5895    3.0153   -1.3816 H       3  SGN3        0.0227
    662 H          -0.8682    4.3487   -0.2855 H       3  SGN3        0.0227
    663 H         -23.8764  -25.7688   -3.7761 H      12  IDS12       0.0194
    664 H         -25.4101  -26.5936   -3.6325 H      12  IDS12       0.0194
    665 H         -25.1448  -25.4635   -4.9385 H      12  IDS12       0.0194
    666 H          -4.3970   -3.5750    1.6340 H       5  SGN5        0.0000
    667 H          -2.0748   -3.7257   -1.5149 H       5  SGN5        0.1180
    668 H           8.2750    7.5660    4.8070 H       1  SGN1        0.2052
    669 H           6.9817    7.0327    5.5499 H       1  SGN1        0.2052
    670 H         -24.2496  -20.2353   -0.8911 H      11  SGN11       0.1146
    671 H         -23.7657  -19.4008    0.4668 H      11  SGN11       0.1146
    672 H           4.1050    6.3180    0.8350 H       2  IDS2        0.0000
    673 H         -20.3025  -18.1305   -0.5131 H      10  IDS10       0.0523
    674 H         -18.8534  -17.6946   -1.3362 H      10  IDS10       0.0523
    675 H           1.6907    3.6680   -0.8804 H       2  IDS2        0.2913
    676 H           5.7039    7.0244    3.0296 H       1  SGN1        0.0570
    677 H           6.1276    8.2053    1.8156 H       1  SGN1        0.0570
    678 H         -23.8390  -23.2690   -3.6620 H      12  IDS12       0.2052
    679 H         -25.1323  -22.5490   -3.0981 H      12  IDS12       0.2052
    680 H           4.8978    5.6660    5.5423 H       1  SGN1        0.2090
    681 H         -19.8709  -20.6530   -4.2334 H      10  IDS10       0.0648
    682 H         -20.6305  -19.6871   -3.0968 H      10  IDS10       0.0648
    683 H           8.5096    6.6087   -0.8945 H       1  SGN1        0.2439
    684 H         -26.1595  -25.2161   -3.5530 H      12  IDS12       0.0194
    685 H         -27.2125  -25.1077   -2.1628 H      12  IDS12       0.0194
    686 H         -26.2282  -26.5310   -2.4044 H      12  IDS12       0.0194
    687 H         -16.6373  -11.4387    0.5940 H       8  IDS8        0.2532
    688 H          -1.4945    4.6325    1.7133 H       3  SGN3        0.1153
    689 H          -5.8570   -5.1240    0.4550 H       6  IDS6        0.2052
    690 H          -7.1503   -4.3854    0.9943 H       6  IDS6        0.2052
    691 H         -12.5362  -13.3904   -7.3524 H       8  IDS8        0.2323
    692 H         -24.6509  -21.3724   -3.9436 H      11  SGN11       0.0194
    693 H         -24.9087  -23.0030   -3.3712 H      11  SGN11       0.0194
    694 H         -24.6670  -21.7038   -2.2281 H      11  SGN11       0.0194
    695 H         -12.9720  -12.5120   -0.2980 H       8  IDS8        0.0000
    696 H          10.8857    9.7496   -0.7945 H       1  SGN1        0.2439
    697 H         -14.6419  -19.6343    2.6627 H       9  SGN9        0.2469
    698 H           2.1852    6.8001    3.3464 H       2  IDS2        0.0869
    699 H         -27.4383  -20.0729   -0.8180 H      11  SGN11       0.2405
    700 H           0.5090    1.9760   -2.0360 H       3  SGN3        0.0000
    701 H          -4.9974    2.6038   -2.6766 H       3  SGN3        0.2335
    702 H           4.9766    6.8113    3.0929 H       2  IDS2        0.2122
    703 H          -9.8172   -5.3206   -0.4924 H       6  IDS6        0.0524
    704 H          -8.8203   -6.4660   -1.3916 H       6  IDS6        0.0524
    705 H           6.4873    7.7252    5.4670 H       1  SGN1        0.0194
    706 H           6.4500    7.2935    3.7743 H       1  SGN1        0.0194
    707 H           4.9663    7.3450    4.6957 H       1  SGN1        0.0194
    708 H         -16.6364  -17.3956    0.4136 H       9  SGN9        0.0521
    709 H         -17.0106  -17.4750   -1.2832 H       9  SGN9        0.0521
    710 H          -4.7866   -9.4929    3.9894 H       5  SGN5        0.2545
    711 H         -20.4547  -17.6982    2.4857 H      10  IDS10       0.2323
    712 H           6.2479    5.8427    8.6048 H       1  SGN1        0.2453
    713 H         -26.0643  -25.8030   -2.7883 H      12  IDS12       0.0555
    714 H         -25.0256  -26.3984   -4.0513 H      12  IDS12       0.0555
    715 H         -16.0022  -18.0145   -6.8727 H       9  SGN9        0.2313
    716 H           2.8270    6.9830    3.4460 H       2  IDS2        0.0194
    717 H           1.4003    6.2414    2.7621 H       2  IDS2        0.0194
    718 H           1.4003    7.9461    3.1458 H       2  IDS2        0.0194
    719 H           1.4003    6.7615    4.4302 H       2  IDS2        0.0194
    720 H          -2.3987   -1.8137    1.3827 H       4  IDS4        0.0641
    721 H         -27.0725  -25.7150   -2.5209 H      12  IDS12       0.0555
    722 H         -26.5083  -25.5423   -0.8763 H      12  IDS12       0.0555
    723 H         -28.1569  -25.1292   -1.2823 H      12  IDS12       0.0555
    724 H         -12.9845   -7.9783    0.5035 H       7  SGN7        0.1004
    725 H           1.8140    6.0980    4.0670 H       2  IDS2        0.2052
    726 H           0.5207    5.3664    4.6157 H       2  IDS2        0.2052
    727 H           0.3380   -2.8910    0.3740 H       4  IDS4        0.0000
    728 H          -0.1766   -2.7700    0.3800 H       4  IDS4        0.0256
    729 H          -1.7323   -2.2766    1.0039 H       4  IDS4        0.0256
    730 H          -0.2981   -1.3664    1.4135 H       4  IDS4        0.0256
    731 H          -8.3330   -4.6490    1.8230 H       6  IDS6        0.0000
    732 H         -14.8945   -5.0649    1.9681 H       7  SGN7        0.2284
    733 H         -13.1220   -5.9430    1.8950 H       7  SGN7        0.2052
    734 H         -14.4153   -6.8023    2.2081 H       7  SGN7        0.2052
    735 H         -16.2788  -12.4316   -0.0768 H       8  IDS8        0.0649
    736 H         -15.1050  -12.9739   -0.9689 H       8  IDS8        0.0649
    737 H           9.1212    8.2782    1.6073 H       1  SGN1        0.1183
    738 H          -0.0232   -0.5337    2.1666 H       4  IDS4        0.2052
    739 H           5.6828    7.7530    4.9556 H       1  SGN1        0.0521
    740 H          -1.6790   -4.3990    0.6580 H       5  SGN5        0.0194
    741 H          -3.1057   -3.6351    1.3169 H       5  SGN5        0.0194
    742 H          -3.1057   -5.3516    0.9901 H       5  SGN5        0.0194
    743 H          -3.1057   -4.2103   -0.3330 H       5  SGN5        0.0194
    744 H           5.9510    4.1050    7.2720 H       1  SGN1        0.2052
    745 H           4.6577    4.6288    6.5223 H       1  SGN1        0.2052
    746 H         -12.1667   -8.1151   -3.5953 H       7  SGN7        0.0194
    747 H         -12.5222   -8.3281   -1.8979 H       7  SGN7        0.0194
    748 H         -12.6221   -9.6892   -2.9890 H       7  SGN7        0.0194
    749 H         -24.2296  -20.6786   -2.1545 H      11  SGN11       0.0054
    750 H         -24.1034  -21.2163   -0.7235 H      11  SGN11       0.0054
    751 H         -18.6490  -20.3890   -4.6060 H      10  IDS10       0.2052
    752 H         -19.9423  -20.9150   -3.8579 H      10  IDS10       0.2052
    753 H          -5.1761   -5.1289   -0.4234 H       5  SGN5        0.0194
    754 H          -4.8347   -4.9189    1.2773 H       5  SGN5        0.0194
    755 H          -6.4747   -5.1992    0.7435 H       5  SGN5        0.0194
    756 H          -1.5195    2.6187    0.8923 H       3  SGN3        0.0521
    757 H          -1.7289    3.9848    1.9384 H       3  SGN3        0.0521
    758 H          10.2837    6.6932    0.5950 H       1  SGN1        0.2439
    759 H          -3.3048    4.8635    5.5767 H       3  SGN3        0.2446
    760 H         -23.4630  -21.8910   -1.7450 H      11  SGN11       0.0194
    761 H         -24.8897  -22.8818   -1.5552 H      11  SGN11       0.0194
    762 H         -24.8897  -21.5600   -2.6980 H      11  SGN11       0.0194
    763 H         -24.8897  -21.2312   -0.9819 H      11  SGN11       0.0194
    764 H          -2.0105   -7.4287   -3.3997 H       5  SGN5        0.2544
    765 H          -1.5380    2.7755    1.4766 H       3  SGN3        0.0227
    766 H          -1.2334    1.4311    0.3812 H       3  SGN3        0.0227
    767 H         -12.6825  -10.5710   -2.4362 H       7  SGN7        0.0194
    768 H         -12.7946   -9.8520   -0.8476 H       7  SGN7        0.0194
    769 H         -12.4063   -8.8579   -2.2311 H       7  SGN7        0.0194
    770 H          -5.8230   -4.8290    3.2390 H       5  SGN5        0.0000
    771 H         -10.0970  -13.4390   -2.0480 H       8  IDS8        0.0000
    772 H         -12.1415   -8.8483   -3.2225 H       7  SGN7        0.0548
    773 H          -6.4003   -4.8339    3.2043 H       5  SGN5        0.0521
    774 H          -5.0050   -4.7634    2.1743 H       5  SGN5        0.0521
    775 H         -14.1019  -13.4270   -1.1142 H       8  IDS8        0.0521
    776 H         -12.9082  -14.2072   -2.1107 H       8  IDS8        0.0521
    777 H         -20.4570  -15.5590   -1.2260 H      10  IDS10       0.0000
    778 H         -26.3515  -25.1282   -2.8180 H      12  IDS12       0.2095
    779 H          -9.2305   -7.3797   -2.2132 H       6  IDS6        0.1281
    780 H         -24.1395  -24.9639   -3.5598 H      12  IDS12       0.2052
    781 H         -20.1270  -16.2340   -1.8820 H      10  IDS10       0.2052
    782 H         -21.4203  -17.1434   -1.9785 H      10  IDS10       0.2052
    783 H         -24.2920  -22.7770   -0.9260 H      11  SGN11       0.2052
    784 H         -25.5853  -23.3945   -0.2514 H      11  SGN11       0.2052
    785 H         -12.9265  -11.2374   -2.2455 H       8  IDS8        0.0523
    786 H         -13.0863  -12.6604   -3.2035 H       8  IDS8        0.0523
    787 H         -18.7907  -19.7483   -4.8489 H      10  IDS10       0.2130
    788 H         -16.5021  -17.0783   -0.0965 H       9  SGN9        0.0194
    789 H         -16.4309  -18.5339    0.8558 H       9  SGN9        0.0194
    790 H         -23.4539  -14.0347   -0.2776 H      10  IDS10       0.2469
    791 H         -13.4879  -13.8845   -2.7876 H       8  IDS8        0.0194
    792 H         -11.8911  -13.2215   -2.5348 H       8  IDS8        0.0194
    793 H         -12.6379  -14.1986   -1.2936 H       8  IDS8        0.0194
    794 H           5.2507    7.4650    4.2919 H       1  SGN1        0.0194
    795 H           4.6336    7.0405    2.7133 H       1  SGN1        0.0194
    796 H           6.3517    7.2504    2.9521 H       1  SGN1        0.0194
    797 H           1.7648   10.8493    4.6361 H       2  IDS2        0.2469
    798 H           1.7895    6.9137    6.0239 H       2  IDS2        0.2453
    799 H          -6.6219   -8.2640   -2.9587 H       6  IDS6        0.2149
    800 H         -19.3630  -18.0100   -3.4560 H      10  IDS10       0.0000
    801 H         -23.9320  -21.7550   -6.0470 H      11  SGN11       0.0000
    802 H          -1.0550   -4.6570    0.8080 H       5  SGN5        0.0000
    803 H         -20.7380  -19.6268   -3.7521 H      10  IDS10       0.0523
    804 H         -20.0097  -18.0622   -3.4788 H      10  IDS10       0.0523
    805 H         -21.4585  -18.5147   -2.6131 H      10  IDS10       0.0523
    806 H          -1.8990    3.6141   -5.6050 H       3  SGN3        0.2323
    807 H          -4.3688   -7.2987    6.3703 H       5  SGN5        0.2545
    808 H         -15.2140  -13.3100   -0.3721 H       8  IDS8        0.0523
    809 H         -13.6477  -12.5398   -0.2911 H       8  IDS8        0.0523
    810 H         -13.8779  -13.9474   -1.3004 H       8  IDS8        0.0523
    811 H          -0.1360    1.1020    0.4600 H       4  IDS4        0.2052
    812 H          -1.4293    1.7556    1.0997 H       4  IDS4        0.2052
    813 H          -3.7590   -4.6700    1.7510 H       5  SGN5        0.0194
    814 H          -5.1857   -5.4628    2.3748 H       5  SGN5        0.0194
    815 H          -5.1857   -4.8138    0.7525 H       5  SGN5        0.0194
    816 H          -5.1857   -3.7334    2.1257 H       5  SGN5        0.0194
    817 H         -24.8471  -25.8251   -4.5351 H      12  IDS12       0.0580
    818 H          -0.5169   -6.2528   -0.5326 H       5  SGN5        0.2544
    819 H         -10.5400  -13.5060   -1.5430 H       8  IDS8        0.2052
    820 H         -11.8333  -14.2282   -0.9820 H       8  IDS8        0.2052
    821 H         -12.6453  -13.7271   -2.6484 H       8  IDS8        0.0538
    822 H         -13.3966  -12.1916   -2.9792 H       8  IDS8        0.0538
    823 H         -19.7993  -18.3314   -0.7852 H      10  IDS10       0.0571
    824 H         -22.8470  -22.2230   -1.7280 H      11  SGN11       0.0000
    825 H         -11.7934   -6.8872   -3.0484 H       7  SGN7        0.2125
    826 H          -8.2655   -5.2587    1.7444 H       6  IDS6        0.0521
    827 H          -9.6784   -4.6198    0.9390 H       6  IDS6        0.0521
    828 H          -8.7293   -5.8727    0.1756 H       6  IDS6        0.0521
    829 H          -9.0695  -15.0470   -3.2169 H       8  IDS8        0.2469
    830 H         -21.2018  -16.5662   -1.8085 H      10  IDS10       0.0252
    831 H         -21.8958  -18.1705   -2.0326 H      10  IDS10       0.0252
    832 H          -9.1751   -7.1024   -0.9001 H       6  IDS6        0.0615
    833 H          -5.5099   -6.7381    4.1644 H       5  SGN5        0.2090
    834 H           3.8448   -1.1783   -1.2574 H       4  IDS4        0.2469
    835 H          -2.4540   -4.8780    1.7840 H       5  SGN5        0.2052
    836 H          -3.7473   -4.3776    1.0185 H       5  SGN5        0.2052
    837 H         -24.9061  -21.6571   -3.4743 H      11  SGN11       0.0584
    838 H         -17.2281  -17.2602   -2.6091 H       9  SGN9        0.0194
    839 H         -16.5426  -17.1880   -1.0035 H       9  SGN9        0.0194
    840 H         -18.2462  -17.5158   -1.2122 H       9  SGN9        0.0194
    841 H           1.7273    5.8369    1.1334 H       2  IDS2        0.0681
    842 H           3.3771    6.3656    0.8735 H       2  IDS2        0.0681
    843 H         -14.2049  -15.9993   -4.0308 H       9  SGN9        0.1360
    844 H         -15.8848  -17.0676   -3.2144 H       9  SGN9        0.0194
    845 H         -17.4771  -17.6098   -3.6872 H       9  SGN9        0.0194
    846 H         -17.0820  -17.4307   -1.9946 H       9  SGN9        0.0194
    847 H          -5.6827   -0.6054    1.4677 H       4  IDS4        0.2153
    848 H          -1.1635    4.9653    1.3333 H       3  SGN3        0.0386
    849 H          -1.6073    3.3923    1.9751 H       3  SGN3        0.0386
    850 H         -24.5329  -21.7319   -5.9868 H      11  SGN11       0.0607
    851 H           1.5692    7.0804    3.0321 H       2  IDS2        0.0521
    852 H           1.2961    6.4484    1.4505 H       2  IDS2        0.0521
    853 H         -24.1650  -22.9170   -0.1270 H      11  SGN11       0.0000
    854 H          -8.1201   -7.1315    3.7151 H       5  SGN5        0.2323
    855 H           8.0570    7.6710    3.3243 H       1  SGN1        0.0444
    856 H         -20.9493  -27.8402   -4.7282 H      12  IDS12       0.2469
    857 H         -25.0566  -23.4748   -3.7609 H      12  IDS12       0.0580
    858 H         -11.2965   -1.8369    2.8756 H       6  IDS6        0.2469
    859 H          -1.2987    0.8468    0.3444 H       4  IDS4        0.0586
    860 H           9.7940    7.6300    4.0570 H       1  SGN1        0.0000
    861 H         -12.4947   -7.7164    0.8776 H       7  SGN7        0.0336
    862 H           7.5406    9.9838    3.8104 H       1  SGN1        0.2532
    863 H           0.6115    5.4414    2.4126 H       3  SGN3        0.2869
@<TRIPOS>BOND
     1     1   119    2
     2     3    93    1
     3     5   501    1
     4     5   325    1
     5     7    19    1
     6     9   127    1
     7     9   473    1
     8     9   347    1
     9     9   199    1
    10    11   387    2
    11    13   531    1
    12    15   309    1
    13    17   413    1
    14    17   459    1
    15    19   371    1
    16    19   355    1
    17    19    63    1
    18    21   261    1
    19    23   251    1
    20    23   539    1
    21    23   167    1
    22    25   501    1
    23    25   229    1
    24    25   351    1
    25    25   193    1
    26    27    93    1
    27    27    47    1
    28    27    37    1
    29    27   331    1
    30    29   533    1
    31    29   543    1
    32    31   315    1
    33    31   481    1
    34    31   483    1
    35    31   209    1
    36    33   471    1
    37    33   115    1
    38    35   507    1
    39    35   449    1
    40    35   179    1
    41    35   481    1
    42    37   235    1
    43    39   575    1
    44    41   143    1
    45    43   353    1
    46    45   279    1
    47    45   251    1
    48    45   433    1
    49    45   105    1
    50    47   377    1
    51    49   101    1
    52    51   339    1
    53    51   195    1
    54    53   215    1
    55    55   155    1
    56    57   353    1
    57    57   413    1
    58    59   163    1
    59    61   505    1
    60    61    75    1
    61    61   547    2
    62    61   205    2
    63    65   109    1
    64    67   365    1
    65    69   133    1
    66    69   107    1
    67    69   219    1
    68    69   257    1
    69    71   549    1
    70    71   215    1
    71    71   465    1
    72    73   163    1
    73    77   301    1
    74    77    83    1
    75    77   127    1
    76    77   113    1
    77    79   419    1
    78    81   291    1
    79    81   341    1
    80    81   153    1
    81    81   197    1
    82    83   323    1
    83    83   307    1
    84    83   457    1
    85    85   471    1
    86    87   249    1
    87    89   161    1
    88    89   117    1
    89    91   365    1
    90    93   533    1
    91    93   531    1
    92    95   553    1
    93    95   529    1
    94    95   187    1
    95    95   601    1
    96    97   527    1
    97    97   139    1
    98    99   593    1
    99    99   353    1
   100    99   571    1
   101    99   375    1
   102   101   501    1
   103   101   165    1
   104   101   333    1
   105   103   559    1
   106   103   599    1
   107   103   129    1
   108   103   589    1
   109   105   301    1
   110   109   117    1
   111   109   227    1
   112   109   221    1
   113   111   395    1
   114   115   463    2
   115   115   423    2
   116   115   569    1
   117   117   349    1
   118   117   357    1
   119   119   271    1
   120   119   561    2
   121   119   431    1
   122   121   471    1
   123   121   245    1
   124   121   395    1
   125   121   137    1
   126   123   467    1
   127   125   549    1
   128   127   321    1
   129   129   231    1
   130   131   563    1
   131   131   169    2
   132   131   313    2
   133   131   503    1
   134   133   315    1
   135   133   517    1
   136   135   529    1
   137   139   487    1
   138   139   389    1
   139   139   269    1
   140   141   387    1
   141   143   559    1
   142   143   429    1
   143   143   265    1
   144   145   175    1
   145   145   575    1
   146   147   299    1
   147   147   233    1
   148   149   449    1
   149   149   317    1
   150   149   417    1
   151   151   299    1
   152   155   245    1
   153   155   261    1
   154   155   381    1
   155   157   285    1
   156   159   585    1
   157   159   251    1
   158   161   549    1
   159   161   601    1
   160   161   183    1
   161   163   385    1
   162   163   287    1
   163   165   323    1
   164   171   369    1
   165   173   397    1
   166   175   345    1
   167   175   525    1
   168   175   207    1
   169   177   459    1
   170   181   315    1
   171   185   229    1
   172   185   545    1
   173   189   351    1
   174   191   397    1
   175   201   509    1
   176   203   527    1
   177   211   249    1
   178   211   225    1
   179   211   361    1
   180   211   565    1
   181   213   479    1
   182   213   239    2
   183   213   329    2
   184   213   421    1
   185   215   587    1
   186   215   343    1
   187   217   525    1
   188   223   405    1
   189   225   429    1
   190   227   405    1
   191   229   509    1
   192   229   263    1
   193   231   429    1
   194   231   299    1
   195   231   499    1
   196   233   327    1
   197   233   303    2
   198   233   241    2
   199   235   527    1
   200   235   419    1
   201   235   367    1
   202   237   337    1
   203   243   407    2
   204   245   445    1
   205   245   537    1
   206   247   309    1
   207   249   553    1
   208   249   271    1
   209   251   289    1
   210   253   551    1
   211   255   377    1
   212   259   593    1
   213   261   277    1
   214   265   583    1
   215   267   593    1
   216   267   397    1
   217   267   595    1
   218   273   553    1
   219   275   279    1
   220   279   383    1
   221   279   297    1
   222   281   501    1
   223   283   397    1
   224   285   459    1
   225   285   567    1
   226   291   559    1
   227   291   427    1
   228   293   407    2
   229   295   429    1
   230   297   453    1
   231   299   319    1
   232   301   523    1
   233   301   447    1
   234   305   353    1
   235   305   365    1
   236   305   495    1
   237   305   335    1
   238   307   597    1
   239   309   531    1
   240   309   311    1
   241   315   345    1
   242   323   467    1
   243   323   435    1
   244   325   521    2
   245   325   393    2
   246   325   579    1
   247   333   509    1
   248   337   515    1
   249   337   557    1
   250   337   455    1
   251   339   549    1
   252   339   349    1
   253   339   373    1
   254   345   409    1
   255   345   489    1
   256   349   469    1
   257   349   461    1
   258   359   369    1
   259   361   529    1
   260   363   475    1
   261   365   371    1
   262   369   467    1
   263   369   515    1
   264   377   425    1
   265   377   459    1
   266   379   399    1
   267   381   575    1
   268   383   585    1
   269   383   477    1
   270   383   493    1
   271   385   551    1
   272   387   529    1
   273   389   449    1
   274   391   509    1
   275   391   439    1
   276   391   581    1
   277   399   507    1
   278   401   487    1
   279   403   553    1
   280   403   591    1
   281   405   437    1
   282   405   451    1
   283   407   477    1
   284   407   519    1
   285   409   555    1
   286   411   559    1
   287   413   485    1
   288   413   577    1
   289   415   507    1
   290   419   505    1
   291   419   511    1
   292   425   485    1
   293   425   475    1
   294   425   513    1
   295   441   449    1
   296   443   551    1
   297   461   585    1
   298   467   523    1
   299   471   575    1
   300   479   487    1
   301   483   525    1
   302   485   563    1
   303   485   497    1
   304   487   507    1
   305   491   585    1
   306   495   545    1
   307   525   551    1
   308   527   533    1
   309   533   535    1
   310   541   545    1
   311   545   593    1
   312   571   573    1
   313   464   287    1
   314   464   116    1
   315   424   116    2
   316   163   288    1
   317   288   164    1
   318   116   570    1
   319    74   164    2
   320    59   570    1
   321   164    60    2
   322   164   386    1
   323   312   314    1
   324   312   310    1
   325    64    20    2
   326   356    63    1
   327   356    19    1
   328   170   132    1
   329   314   132    1
   330   504   132    1
   331   504   355    1
   332   248   310    1
   333    34   472    1
   334   254   552    1
   335    20     8    1
   336    20   372    1
   337   132   564    1
   338    86   472    1
   339   310   247    1
   340   310   532    1
   341   310   309    1
   342   386   552    1
   343   317   418    1
   344   552   526    1
   345    16   311    1
   346    16   309    1
   347   472   576    1
   348   138   122    1
   349    40   576    1
   350    68   366    1
   351   544    30    1
   352    14   532    1
   353   452   406    1
   354    92   366    1
   355   418   150    1
   356   372   366    1
   357   149   150    1
   358   564   486    1
   359   576   382    1
   360   112   396    1
   361   438   406    1
   362   438   437    1
   363   218   526    1
   364   526   484    1
   365   498   486    1
   366   446   246    1
   367   446   445    1
   368   406   224    1
   369   406   228    1
   370   224   451    1
   371   520   408    2
   372   578   414    1
   373   294   408    2
   374   582   439    1
   375   582   392    1
   376   484    32    1
   377   200   199    1
   378   200   244    1
   379   180    36    1
   380   246   538    1
   381   347   348    1
   382     4    94    1
   383   176   208    1
   384   450   390    1
   385   536   534    1
   386   408   244    1
   387   408   478    1
   388   414    18    1
   389   514   426    1
   390   306   336    1
   391   598   308    1
   392   322   128    1
   393   156    56    1
   394   392   440    1
   395   392   581    1
   396   405   228    1
   397    36   482    1
   398   496   546    1
   399    66   110    1
   400   264   230    1
   401    32   482    1
   402    32   210    1
   403   391   510    1
   404   332    28    1
   405    48   378    1
   406    44   354    1
   407    18   460    1
   408   390   140    1
   409   308    84    1
   410   277    22    1
   411   128    78    1
   412   202   510    1
   413   204   528    1
   414   473   474    1
   415   261    22    1
   416   478   384    1
   417   262   278    1
   418   378   256    1
   419   510   334    1
   420   508   416    1
   421   508   488    1
   422   278    21    1
   423   230   186    1
   424   492   586    1
   425   316   182    1
   426   316   133    1
   427   546   542    1
   428   546   186    1
   429   546   594    1
   430   494   384    1
   431   140   270    1
   432   458    84    1
   433    38   236    1
   434   142   388    1
   435   352    26    1
   436   352   190    1
   437    78   114    1
   438   384   586    1
   439   384   280    1
   440   236   368    1
   441   100   376    1
   442   100   594    1
   443   100   572    1
   444   118   358    1
   445   118   350    1
   446   488   480    1
   447   488   402    1
   448   260   594    1
   449   586   160    1
   450    90   162    1
   451   334   102    1
   452    26   194    1
   453   286   568    1
   454   286   285    1
   455   141   388    1
   456   188    96    1
   457   470   350    1
   458   198    82    2
   459   134   518    1
   460   388    12    1
   461   388   530    1
   462   568   157    1
   463   584   266    1
   464   160   252    1
   465   158   567    1
   466   480   214    1
   467   572   574    1
   468   428   292    1
   469   154    82    2
   470   324   436    1
   471   257   108    1
   472   102    50    1
   473   420    80    1
   474   420   512    1
   475   506    62    2
   476   184   162    1
   477   162   602    1
   478    82   342    2
   479   502     6    1
   480   266   144    1
   481   454   298    1
   482   530   362    1
   483   268   596    1
   484   268   267    1
   485   108    70    1
   486    46   434    1
   487   292   560    1
   488    70   220    2
   489    70   258    1
   490   404   592    1
   491   404   554    1
   492   548    62    2
   493   126   550    1
   494   252   290    1
   495   252    24    1
   496   214   422    1
   497   214   330    1
   498   214   240    1
   499   340   374    1
   500   340    52    1
   501   550    72    1
   502   554   274    1
   503   422    75    1
   504    62    76    1
   505    62   206    1
   506   330   258    1
   507   540    24    1
   508   144   560    1
   509    24   168    1
   510    24   167    1
   511   398   192    1
   512   398   174    1
   513   192   191    1
   514   560   412    1
   515   362   212    1
   516    52   196    1
   517   588   216    2
   518   226   212    1
   519   370   516    1
   520   370   172    1
   521   599   600    1
   522   522   326    2
   523   168   539    1
   524   326   394    2
   525   326   580    2
   526    72   466    1
   527   212   566    1
   528   430   296    1
   529   237   238    1
   530   173   174    1
   531   216   344    2
   532   500   232    1
   533   338   558    2
   534   587    54    1
   535   562   120    2
   536   455   456    1
   537   215     2    1
   538   120    53    1
   539   120   432    1
   540   320   300    1
   541   300   148    1
   542   300   152    1
   543   327   234    1
   544   328   234    2
   545   234   242    1
   546     2   603    1
   547     6   604    1
   548     7   605    1
   549     8   606    1
   550    10   607    1
   551    10   608    1
   552    12   609    1
   553    15   610    1
   554    23   611    1
   555    26   612    1
   556    26   613    1
   557    28   614    1
   558    28   615    1
   559    28   616    1
   560    30   617    1
   561    32   618    1
   562    34   619    1
   563    36   620    1
   564    36   621    1
   565    38   622    1
   566    42   623    1
   567    46   624    1
   568    46   625    1
   569    46   626    1
   570    48   627    1
   571    54   628    1
   572    58   629    1
   573    58   630    1
   574    72   631    1
   575    73   632    1
   576    76   633    1
   577    78   634    1
   578    78   635    1
   579    84   636    1
   580    84   637    1
   581    88   638    1
   582    90   639    1
   583    94   640    1
   584    94   641    1
   585    94   642    1
   586    96   643    1
   587    96   644    1
   588    96   645    1
   589    98   646    1
   590    98   647    1
   591   100   648    1
   592   102   649    1
   593   102   650    1
   594   104   651    1
   595   104   652    1
   596   104   653    1
   597   104   654    1
   598   106   655    1
   599   106   656    1
   600   107   657    1
   601   110   658    1
   602   110   659    1
   603   110   660    1
   604   118   661    1
   605   118   662    1
   606   122   663    1
   607   122   664    1
   608   122   665    1
   609   124   666    1
   610   128   667    1
   611   130   668    1
   612   130   669    1
   613   134   670    1
   614   134   671    1
   615   136   672    1
   616   140   673    1
   617   140   674    1
   618   142   675    1
   619   144   676    1
   620   144   677    1
   621   146   678    1
   622   146   679    1
   623   148   680    1
   624   150   681    1
   625   150   682    1
   626   153   683    1
   627   156   684    1
   628   156   685    1
   629   156   686    1
   630   158   687    1
   631   162   688    1
   632   166   689    1
   633   166   690    1
   634   170   691    1
   635   176   692    1
   636   176   693    1
   637   176   694    1
   638   178   695    1
   639   197   696    1
   640   206   697    1
   641   212   698    1
   642   219   699    1
   643   222   700    1
   644   223   701    1
   645   226   702    1
   646   230   703    1
   647   230   704    1
   648   232   705    1
   649   232   706    1
   650   232   707    1
   651   236   708    1
   652   236   709    1
   653   238   710    1
   654   240   711    1
   655   242   712    1
   656   246   713    1
   657   246   714    1
   658   248   715    1
   659   250   716    1
   660   250   717    1
   661   250   718    1
   662   250   719    1
   663   252   720    1
   664   262   721    1
   665   262   722    1
   666   262   723    1
   667   268   724    1
   668   272   725    1
   669   272   726    1
   670   276   727    1
   671   280   728    1
   672   280   729    1
   673   280   730    1
   674   282   731    1
   675   283   732    1
   676   284   733    1
   677   284   734    1
   678   286   735    1
   679   286   736    1
   680   292   737    1
   681   298   738    1
   682   300   739    1
   683   302   740    1
   684   302   741    1
   685   302   742    1
   686   302   743    1
   687   304   744    1
   688   304   745    1
   689   306   746    1
   690   306   747    1
   691   306   748    1
   692   316   749    1
   693   316   750    1
   694   318   751    1
   695   318   752    1
   696   324   753    1
   697   324   754    1
   698   324   755    1
   699   340   756    1
   700   340   757    1
   701   341   758    1
   702   343   759    1
   703   346   760    1
   704   346   761    1
   705   346   762    1
   706   346   763    1
   707   348   764    1
   708   350   765    1
   709   350   766    1
   710   354   767    1
   711   354   768    1
   712   354   769    1
   713   360   770    1
   714   364   771    1
   715   366   772    1
   716   370   773    1
   717   370   774    1
   718   378   775    1
   719   378   776    1
   720   380   777    1
   721   382   778    1
   722   392   779    1
   723   396   780    1
   724   400   781    1
   725   400   782    1
   726   410   783    1
   727   410   784    1
   728   414   785    1
   729   414   786    1
   730   417   787    1
   731   420   788    1
   732   420   789    1
   733   421   790    1
   734   426   791    1
   735   426   792    1
   736   426   793    1
   737   430   794    1
   738   430   795    1
   739   430   796    1
   740   431   797    1
   741   432   798    1
   742   440   799    1
   743   442   800    1
   744   444   801    1
   745   448   802    1
   746   450   803    1
   747   450   804    1
   748   450   805    1
   749   452   806    1
   750   456   807    1
   751   460   808    1
   752   460   809    1
   753   460   810    1
   754   462   811    1
   755   462   812    1
   756   468   813    1
   757   468   814    1
   758   468   815    1
   759   468   816    1
   760   472   817    1
   761   474   818    1
   762   476   819    1
   763   476   820    1
   764   486   821    1
   765   486   822    1
   766   488   823    1
   767   490   824    1
   768   496   825    1
   769   502   826    1
   770   502   827    1
   771   502   828    1
   772   503   829    1
   773   508   830    1
   774   508   831    1
   775   510   832    1
   776   516   833    1
   777   519   834    1
   778   524   835    1
   779   524   836    1
   780   526   837    1
   781   528   838    1
   782   528   839    1
   783   528   840    1
   784   530   841    1
   785   530   842    1
   786   532   843    1
   787   534   844    1
   788   534   845    1
   789   534   846    1
   790   540   847    1
   791   550   848    1
   792   550   849    1
   793   552   850    1
   794   554   851    1
   795   554   852    1
   796   556   853    1
   797   557   854    1
   798   560   855    1
   799   569   856    1
   800   576   857    1
   801   579   858    1
   802   586   859    1
   803   590   860    1
   804   594   861    1
   805   600   862    1
   806   602   863    1
