@<TRIPOS>MOLECULE
1HPN_LIGAND_1_uncharged.pdb
 824 767 0 0 0
SMALL
GASTEIGER

@<TRIPOS>ATOM
      1  O2S        4.1170   10.2430    5.3710 O.2     2  IDS2       -0.3452
      2  O2S       -0.6890    5.0900    5.5770 O.3     2  IDS2       -0.0475
      3  H2       -15.6630  -18.3490   -2.5940 H       9  SGN9        0.0548
      4  H2       -15.1400  -18.2100   -3.2590 H       9  SGN9        0.0194
      5  O2        -9.6980   -3.7970    2.4740 O.3     6  IDS6       -0.2435
      6  O2        -9.8930   -6.4840    1.7320 O.3     6  IDS6       -0.3982
      7  O5S      -15.9430  -10.1090   -4.7620 O.3     7  SGN7       -0.0758
      8  O5S      -15.7700   -8.6670   -5.6560 O.2     7  SGN7       -0.1341
      9  S1        -1.9280   -4.7830   -2.4870 S.3     5  SGN5        0.2557
     10  S1        -1.2680   -5.3950   -2.3690 S.3     5  SGN5        0.0000
     11  O61        2.1810    6.0600   -0.6760 O.2     2  IDS2       -0.2477
     12  O61        3.7910    3.4980    0.5330 O.3     2  IDS2       -0.3312
     13  HN       -15.3400  -16.2540   -4.3430 H       9  SGN9        0.1416
     14  HN       -15.6840  -15.7240   -4.7190 H       9  SGN9        0.1360
     15  O1S      -12.8890  -18.2440   -3.2240 O.3     9  SGN9       -0.0882
     16  O1S      -13.3010  -17.9440   -5.3430 O.3     9  SGN9       -0.0882
     17  O5       -14.0350  -12.5840   -1.2190 O.3     8  IDS8       -0.3371
     18  O5       -14.6910  -12.2190   -2.0130 O.3     8  IDS8       -0.3862
     19  S2       -14.5680   -9.9990   -5.1650 S.3     7  SGN7        0.3438
     20  S2       -14.3730   -8.8010   -5.9560 S.3     7  SGN7        0.1728
     21  O61      -27.6920  -26.4140   -0.7170 O.3    12  IDS12      -0.1628
     22  O61      -27.8900  -24.9140   -0.8670 O.3    12  IDS12      -0.1573
     23  C6        -2.9020   -1.0530    3.1330 C.3     4  IDS4        0.2263
     24  C6        -4.1720   -1.0070    2.3300 C.3     4  IDS4        0.3379
     25  C3       -10.7350   -5.1040    0.7640 C.3     6  IDS6        0.1170
     26  C3        -9.8200   -5.0090   -0.1480 C.3     6  IDS6        0.0330
     27  C1       -15.0780  -16.8130   -1.1800 C.3     9  SGN9        0.1789
     28  C1       -14.6480  -16.5070   -2.0400 C.3     9  SGN9       -0.0776
     29  O3       -17.6430  -17.2850   -3.8730 O.3     9  SGN9       -0.3874
     30  O3       -17.6120  -17.7300   -3.9910 O.3     9  SGN9       -0.4105
     31  C1       -24.3360  -19.7380   -3.4490 C.3    11  SGN11       0.2067
     32  C1       -24.0290  -19.4610   -2.1810 C.3    11  SGN11       0.1479
     33  O2       -23.0010  -26.3270   -4.9850 O.3    12  IDS12      -0.2435
     34  O2       -26.2410  -25.5760   -6.0180 O.3    12  IDS12      -0.3928
     35  C4       -22.4490  -18.2590   -3.2840 C.3    10  IDS10       0.1217
     36  C4       -21.8950  -18.3950   -2.4740 C.3    10  IDS10       0.0392
     37  O5       -15.8960  -17.2980   -0.1570 O.3     9  SGN9       -0.3414
     38  O5       -15.0470  -17.0960   -0.8370 O.3     9  SGN9       -0.3982
     39  H1       -24.9150  -24.7810   -5.1680 H      12  IDS12       0.0938
     40  H1       -26.4170  -23.2440   -4.9360 H      12  IDS12       0.0580
     41  H3         6.6120    9.6060    1.9570 H       1  SGN1        0.0638
     42  H3         6.0900    8.2340    1.7750 H       1  SGN1        0.0000
     43  H4       -13.8430  -10.1640   -1.3040 H       7  SGN7        0.0652
     44  H4       -14.0620   -9.5030   -2.0560 H       7  SGN7        0.0194
     45  C4        -1.6290   -2.4090    1.3580 C.3     4  IDS4        0.1212
     46  C4        -2.1100   -2.1940    1.3680 C.3     4  IDS4       -0.0776
     47  O1       -14.9570  -15.4220   -1.1050 O.3     9  SGN9       -0.3410
     48  O1       -14.7480  -15.1130   -2.0780 O.3     9  SGN9       -0.3982
     49  H1        -8.0710   -5.6030    2.0510 H       6  IDS6        0.0938
     50  H1        -7.3650   -6.6640    1.6970 H       6  IDS6        0.0524
     51  O3        -0.8940    1.9380    3.5810 O.3     3  SGN3       -0.3874
     52  O3        -2.5310    2.2270    2.6220 O.3     3  SGN3       -0.3982
     53  O3S       -0.6310    6.0410    6.3670 O.3     3  SGN3       -0.0670
     54  O3S       -2.3310    6.5380    5.0820 O.3     3  SGN3       -0.0085
     55  H5       -25.2500  -25.5020   -1.6820 H      12  IDS12       0.0709
     56  H5       -25.4480  -24.9990   -1.9330 H      12  IDS12       0.0194
     57  O1       -12.0870  -11.3070   -1.3090 O.3     8  IDS8       -0.3399
     58  O1       -12.6590  -11.0580   -2.1400 O.3     8  IDS8       -0.4105
     59  O5S      -27.4880  -22.9790   -7.4970 O.3    11  SGN11      -0.0773
     60  O5S      -28.4290  -20.4940   -6.2990 O.2    11  SGN11      -0.1168
     61  S2       -18.7010  -19.6240    2.1010 S.O2    9  SGN9        0.2377
     62  S2       -16.5370  -19.8360    2.1280 S.3     9  SGN9        0.2666
     63  O6S      -14.3560   -8.9480   -6.1150 O.3     7  SGN7       -0.0758
     64  O6S      -13.8720   -7.7190   -6.7530 O.3     7  SGN7       -0.0378
     65  H61       -0.5120    4.2730   -1.7990 H       3  SGN3        0.0601
     66  H61        0.1250    3.7340   -2.3960 H       3  SGN3        0.0194
     67  H61      -12.0860   -8.6010   -4.3570 H       7  SGN7        0.0601
     68  H61      -11.7100   -8.1300   -4.8190 H       7  SGN7        0.0548
     69  S1       -25.9710  -18.7840   -0.4870 S.3    11  SGN11       0.0438
     70  S1       -25.0330  -20.1030    1.4180 S.O    11  SGN11       0.3652
     71  N         -0.4280    4.7280    4.3290 N.3     3  SGN3       -0.1722
     72  N         -1.7480    4.9570    3.3270 N.3     3  SGN3       -0.3327
     73  O6S      -25.7370  -21.9880   -8.7820 O.3    11  SGN11      -0.0762
     74  O6S      -26.7210  -19.3430   -7.5110 O.2    11  SGN11      -0.1168
     75  O4S      -20.0490  -19.1700    2.2610 O.3     9  SGN9       -0.0319
     76  O4S      -17.8610  -19.6480    2.6390 O.3     9  SGN9       -0.0200
     77  C2        -3.7210   -4.5860   -0.5200 C.3     5  SGN5        0.1016
     78  C2        -3.2490   -5.1180   -0.6040 C.3     5  SGN5       -0.0188
     79  H62      -18.9240  -16.8420    1.2060 H       9  SGN9        0.0611
     80  H62      -17.6450  -17.2830    1.2610 H       9  SGN9        0.0194
     81  S1         9.7320    8.1450   -0.6310 S.3     1  SGN1        0.0767
     82  S1         9.9720    6.5010    1.0750 S.3     1  SGN1        0.3202
     83  C3        -5.1860   -4.1290   -0.4570 C.3     5  SGN5        0.1048
     84  C3        -4.7720   -4.9570   -0.7280 C.3     5  SGN5        0.0330
     85  H2       -23.2910  -26.1620   -2.9410 H      12  IDS12       0.0698
     86  H2       -24.4220  -24.6300   -5.7950 H      12  IDS12       0.0580
     87  H2         2.5250    9.0630    3.2270 H       2  IDS2        0.0698
     88  H2         1.8310    7.9100    4.0670 H       2  IDS2        0.0000
     89  O5        -0.9050    4.8480    0.6840 O.3     3  SGN3       -0.3414
     90  O5        -0.9410    4.6900   -0.2520 O.3     3  SGN3       -0.3698
     91  H62      -11.9190  -10.3620   -3.9660 H       7  SGN7        0.0601
     92  H62      -12.0120   -9.9080   -4.6540 H       7  SGN7        0.0548
     93  C2       -15.6380  -17.2310   -2.5490 C.3     9  SGN9        0.1027
     94  C2       -15.4130  -17.1260   -3.2220 C.3     9  SGN9       -0.0776
     95  C4         1.3690    6.8160    2.0150 C.3     2  IDS2        0.1267
     96  C4         1.3370    6.1280    1.1070 C.3     2  IDS2       -0.0776
     97  O1       -19.2010  -16.6600   -1.5990 O.3    10  IDS10      -0.3401
     98  O1       -18.6490  -17.4360   -1.3890 O.3    10  IDS10      -0.4105
     99  C3       -12.4420   -9.5270    0.2270 C.3     7  SGN7        0.1321
    100  C3       -12.6260   -9.4170   -0.4210 C.3     7  SGN7        0.0488
    101  C1        -8.2320   -5.0820    1.0800 C.3     6  IDS6        0.1911
    102  C1        -7.7340   -6.1340    0.7900 C.3     6  IDS6        0.0367
    103  C1         8.9910    8.2700    2.8030 C.3     1  SGN1        0.2120
    104  C1         8.1400    7.8900    3.7340 C.3     1  SGN1       -0.0776
    105  O1        -2.9140   -2.9130    1.0210 O.3     5  SGN5       -0.3410
    106  O1        -2.9110   -3.0160    0.5320 O.3     5  SGN5       -0.4105
    107  O1S      -26.3350  -17.8930   -1.5470 O.3    11  SGN11      -0.0313
    108  O1S      -25.6650  -18.8280    1.2410 O.3    11  SGN11      -0.0760
    109  C6        -0.7730    3.3860   -1.1750 C.3     3  SGN3        0.0970
    110  C6        -0.5150    2.9990   -1.8570 C.3     3  SGN3       -0.0776
    111  HO3      -23.4540  -28.7900   -4.3820 H      12  IDS12       0.2100
    112  HO3      -22.8570  -25.5810   -4.2000 H      12  IDS12       0.2052
    113  H2        -3.7340   -5.6920   -0.6760 H       5  SGN5        0.0547
    114  H2        -3.0470   -6.2120   -0.4910 H       5  SGN5        0.0386
    115  S        -21.4830  -25.9590   -5.0460 S.3    12  IDS12      -0.0004
    116  S        -26.5300  -25.2290   -7.5120 S.O    12  IDS12       0.3645
    117  C5        -0.3530    3.6010    0.2860 C.3     3  SGN3        0.1150
    118  C5        -0.5720    3.3230   -0.3570 C.3     3  SGN3       -0.0681
    119  S          2.8660    9.7850    5.8930 S.3     2  IDS2       -0.0004
    120  S          0.0160    6.3250    5.3720 S.3     2  IDS2        0.1966
    121  C3       -24.7620  -27.4690   -3.8470 C.3    12  IDS12       0.1201
    122  C3       -24.6870  -26.2070   -4.3200 C.3    12  IDS12      -0.0776
    123  H5        -5.0280   -3.3320    2.1700 H       5  SGN5        0.0647
    124  H5        -5.0170   -3.5750    1.6340 H       5  SGN5        0.0000
    125  H2        -2.0210    4.1960    3.0150 H       3  SGN3        0.0554
    126  H2        -2.8840    4.5610    1.5670 H       3  SGN3        0.0386
    127  N         -3.0010   -3.9180   -1.6050 N.3     5  SGN5       -0.2007
    128  N         -2.5590   -4.5840   -1.7780 N.3     5  SGN5       -0.3327
    129  O5         8.4210    7.5440    3.8520 O.3     1  SGN1       -0.3389
    130  O5         7.3050    7.5660    4.8070 O.3     1  SGN1       -0.4105
    131  S         -9.6640  -13.1590   -3.2810 S.3     8  IDS8       -0.0004
    132  S        -13.8550  -13.5420   -5.8850 S.3     8  IDS8        0.3125
    133  N        -24.8100  -19.7910   -1.0450 N.4    11  SGN11       0.3960
    134  N        -24.0730  -20.3060    0.1110 N.3    11  SGN11      -0.3437
    135  H5         3.1180    7.8870    1.1970 H       2  IDS2        0.0742
    136  H5         3.4850    6.3180    0.8350 H       2  IDS2        0.0000
    137  H3       -25.2490  -27.6050   -4.8420 H      12  IDS12       0.0650
    138  H3       -24.3010  -27.0360   -4.9590 H      12  IDS12       0.0194
    139  C1       -20.3050  -17.4940   -1.4010 C.3    10  IDS10       0.1911
    140  C1       -19.4150  -18.5250   -0.9620 C.3    10  IDS10       0.0361
    141  O62        4.0170    5.3900    0.0140 O.3     2  IDS2       -0.4042
    142  O62        2.4010    4.2730   -0.7950 O.3     2  IDS2       -0.3312
    143  C3         6.7020    8.5060    1.7870 C.3     1  SGN1        0.1056
    144  C3         6.3000    7.2070    2.1600 C.3     1  SGN1        0.0565
    145  O1       -24.0490  -23.8740   -3.5470 O.3    12  IDS12      -0.3399
    146  O1       -24.8090  -23.2690   -3.6620 O.3    12  IDS12      -0.4105
    147  O6         6.6340    5.8100    5.1560 O.3     1  SGN1       -0.2116
    148  O6         5.3030    6.2070    6.2380 O.3     1  SGN1       -0.3982
    149  C6       -20.5130  -19.4140   -4.5170 C.3    10  IDS10       0.2558
    150  C6       -20.6230  -19.8970   -4.1460 C.3    10  IDS10       0.1419
    151  H61        7.5060    7.3080    6.2500 H       1  SGN1        0.0611
    152  H61        5.6720    8.1690    6.7070 H       1  SGN1        0.0521
    153  O2S        8.8860    7.3170   -1.4400 O.3     1  SGN1       -0.0534
    154  O2S        9.4920    5.2560    0.5470 O.2     1  SGN1       -0.1067
    155  C5       -26.0530  -25.8840   -2.3590 C.3    12  IDS12       0.1813
    156  C5       -26.2700  -25.4680   -2.5190 C.3    12  IDS12      -0.0776
    157  O61      -15.3650  -14.2220    1.6040 O.3     8  IDS8       -0.1910
    158  O61      -16.1620  -12.2540    0.3700 O.3     8  IDS8       -0.2471
    159  O5        -2.0530   -0.0550    1.1030 O.3     4  IDS4       -0.3376
    160  O5        -3.0490   -0.1960    0.3570 O.3     4  IDS4       -0.3691
    161  C1        -0.4830    5.2850    1.9420 C.3     3  SGN3        0.1795
    162  C1        -0.8790    5.2000    1.0470 C.3     3  SGN3        0.1419
    163  S2       -26.0760  -22.9320   -7.7580 S.3    11  SGN11       0.3398
    164  S2       -27.0890  -20.5410   -6.8160 S.O2   11  SGN11       0.2257
    165  O1        -7.1680   -4.2040    0.8540 O.3     6  IDS6       -0.3401
    166  O1        -6.8270   -5.1240    0.4550 O.3     6  IDS6       -0.4105
    167  O62       -3.6410   -0.1070    3.2810 O.3     4  IDS4       -0.2880
    168  O62       -4.3340   -1.8860    3.1430 O.3     4  IDS4       -0.1653
    169  O1S       -9.5020  -13.0440   -4.7020 O.2     8  IDS8       -0.3452
    170  O1S      -12.5160  -13.4710   -6.3860 O.3     8  IDS8       -0.0870
    171  H61       -4.8860   -4.8700    4.1650 H       5  SGN5        0.0601
    172  H61       -4.7950   -4.5660    3.9450 H       5  SGN5        0.0521
    173  O3S      -13.0200   -6.0010    3.5290 O.3     7  SGN7       -0.0749
    174  O3S      -12.8120   -7.0370    3.5790 O.3     7  SGN7       -0.1112
    175  C4       -24.6780  -22.6030   -3.6220 C.3    11  SGN11       0.1213
    176  C4       -25.0940  -21.9680   -3.1730 C.3    11  SGN11      -0.0776
    177  H5       -13.0550  -13.1510    0.4900 H       8  IDS8        0.0681
    178  H5       -13.5920  -12.5120   -0.2980 H       8  IDS8        0.0000
    179  H4       -22.8640  -17.7460   -4.1860 H      10  IDS10       0.0652
    180  H4       -22.4420  -17.8830   -3.3010 H      10  IDS10       0.0524
    181  H2       -26.1270  -20.5540   -2.5390 H      11  SGN11       0.0935
    182  H2       -25.7740  -20.2190   -1.1790 H      11  SGN11       0.0784
    183  H1        -1.0130    6.2460    2.1310 H       3  SGN3        0.0927
    184  H1        -1.2200    6.2590    0.9820 H       3  SGN3        0.0867
    185  O1       -11.0450   -7.0400   -0.6040 O.3     7  SGN7       -0.3376
    186  O1       -10.6310   -7.1580   -0.8080 O.3     7  SGN7       -0.3547
    187  H4         0.7600    7.4690    1.3420 H       2  IDS2        0.0656
    188  H4         1.1270    6.4480    0.0590 H       2  IDS2        0.0194
    189  HO3      -12.1250   -4.1050    1.6650 H       6  IDS6        0.2100
    190  HO3       -9.2980   -3.1490   -0.0610 H       6  IDS6        0.2090
    191  O2S      -14.7580   -7.5080    2.9020 O.3     7  SGN7       -0.0749
    192  O2S      -14.4890   -8.2450    2.4040 O.3     7  SGN7       -0.1112
    193  H3       -10.8690   -5.9050    1.5290 H       6  IDS6        0.0649
    194  H3       -10.8640   -4.6890    0.0830 H       6  IDS6        0.0521
    195  HO3       -0.4640    2.0200    4.4140 H       3  SGN3        0.2100
    196  HO3       -2.3990    2.3360    3.5480 H       3  SGN3        0.2090
    197  O3S       10.3240    9.2180   -1.3800 O.3     1  SGN1       -0.0534
    198  O3S       10.7070    7.2590    0.1020 O.2     1  SGN1       -0.1067
    199  O3S       -1.2330   -3.8010   -3.2740 O.3     5  SGN5       -0.0820
    200  O3S       -0.6860   -4.5000   -3.3310 O.3     5  SGN5       -0.0233
    201  H5        -8.7000   -4.7510   -1.3650 H       6  IDS6        0.0680
    202  H5        -7.7200   -5.7870   -1.7700 H       6  IDS6        0.0615
    203  H4       -17.9880  -18.3690   -1.5560 H       9  SGN9        0.0650
    204  H4       -17.0540  -18.7660   -1.6650 H       9  SGN9        0.0194
    205  O6S      -17.9200  -19.5200    3.2980 O.2     9  SGN9       -0.1156
    206  O6S      -15.5120  -19.4860    3.0650 O.3     9  SGN9       -0.0200
    207  H4       -25.7660  -22.7090   -3.8460 H      11  SGN11       0.0652
    208  H4       -26.1960  -21.7850   -3.1480 H      11  SGN11       0.0194
    209  H1       -24.8350  -18.7480   -3.5710 H      11  SGN11       0.0970
    210  H1       -24.3260  -18.4390   -1.8570 H      11  SGN11       0.0871
    211  C1         3.8520    7.3260    3.5310 C.3     2  IDS2        0.1915
    212  C1         3.1220    6.2850    3.3920 C.3     2  IDS2        0.1454
    213  S        -21.6030  -14.5850    0.1630 S.3    10  IDS10      -0.0004
    214  S        -21.2820  -19.3990    1.9030 S.3    10  IDS10       0.3134
    215  S1        -1.4600    5.5330    5.3100 S.3     3  SGN3        0.0920
    216  S1        -2.8470    6.0580    3.8300 S.3     3  SGN3        0.2519
    217  H5       -22.8840  -21.6570   -4.4380 H      11  SGN11       0.0647
    218  H5       -23.2700  -21.1460   -4.0240 H      11  SGN11       0.0584
    219  O2S      -27.0500  -19.6220   -0.0520 O.3    11  SGN11      -0.0313
    220  O2S      -25.9660  -21.1890    1.4630 O.2    11  SGN11      -0.1915
    221  H62       -0.2780    2.4870   -1.6110 H       3  SGN3        0.0601
    222  H62       -0.1110    1.9760   -2.0360 H       3  SGN3        0.0000
    223  O5S       -4.3680    2.7150   -1.9470 O.3     3  SGN3       -0.0768
    224  O5S       -3.7000    2.9080   -3.8110 O.3     3  SGN3       -0.0854
    225  O1         4.8730    8.2490    3.2850 O.3     2  IDS2       -0.3401
    226  O1         4.1020    7.2300    3.0660 O.3     2  IDS2       -0.3696
    227  O6        -2.1730    3.2170   -1.2220 O.3     3  SGN3       -0.2536
    228  O6        -1.8200    3.0870   -2.3860 O.3     3  SGN3       -0.1295
    229  C4       -10.5530   -5.7080   -0.6390 C.3     6  IDS6        0.1217
    230  C4        -9.8090   -6.0860   -1.2400 C.3     6  IDS6        0.0394
    231  C5         7.1030    7.9500    4.1900 C.3     1  SGN1        0.1160
    232  C5         5.9260    7.7980    4.5590 C.3     1  SGN1       -0.0776
    233  S2         6.2090    4.6500    6.1120 S.O2    1  SGN1        0.2325
    234  S2         4.6630    5.4920    7.4700 S.3     1  SGN1        0.1982
    235  C5       -17.2280  -16.8070   -0.1970 C.3     9  SGN9        0.1159
    236  C5       -16.4280  -16.9660   -0.5440 C.3     9  SGN9        0.0330
    237  O5S       -6.2050   -8.7480    3.4320 O.3     5  SGN5       -0.0708
    238  O5S       -5.3210   -8.6900    4.0930 O.3     5  SGN5       -0.0175
    239  O1S      -21.8380  -14.6220    1.5800 O.2    10  IDS10      -0.3452
    240  O1S      -21.2750  -18.1850    2.6620 O.3    10  IDS10      -0.0870
    241  O6S        7.2270    4.5640    7.1170 O.2     1  SGN1       -0.1162
    242  O6S        5.2990    6.0420    8.6310 O.3     1  SGN1       -0.0363
    243  O1S        2.0830   -0.0440   -2.8700 O.2     4  IDS4       -0.3452
    244  O1S       -0.0010   -3.0200   -2.7990 O.3     4  IDS4       -0.0169
    245  C4       -25.8160  -27.3600   -2.7320 C.3    12  IDS12       0.1560
    246  C4       -25.7270  -26.6830   -3.2950 C.3    12  IDS12       0.0718
    247  O2S      -14.3630  -18.6170   -5.0740 O.3     9  SGN9       -0.1501
    248  O2S      -15.5630  -18.2720   -6.0470 O.3     9  SGN9       -0.0983
    249  C2         2.5640    8.1160    3.8190 C.3     2  IDS2        0.1644
    250  C2         1.7570    6.9830    3.4460 C.3     2  IDS2       -0.0776
    251  C5        -1.8090   -1.0530    2.0700 C.3     4  IDS4        0.1440
    252  C5        -2.8490   -0.8650    1.5880 C.3     4  IDS4        0.1316
    253  H61      -23.6570  -21.4960   -6.8350 H      11  SGN11       0.0601
    254  H61      -24.2910  -19.9620   -5.9940 H      11  SGN11       0.0607
    255  H4       -13.2880  -15.5150    0.1580 H       8  IDS8        0.0652
    256  H4       -13.3680  -14.9570   -0.5490 H       8  IDS8        0.0521
    257  O3S      -25.3480  -18.0830    0.6030 O.3    11  SGN11      -0.0415
    258  O3S      -24.1400  -20.1120    2.5430 O.3    11  SGN11      -0.0863
    259  H2       -14.0940   -8.1610    0.2490 H       7  SGN7        0.0940
    260  H2       -13.8870   -7.6710   -0.2900 H       7  SGN7        0.0336
    261  C6       -27.3400  -25.6410   -1.5770 C.3    12  IDS12       0.3949
    262  C6       -27.3470  -25.7970   -1.4900 C.3    12  IDS12       0.0720
    263  H4       -11.0690   -5.1180   -1.4340 H       6  IDS6        0.0652
    264  H4       -10.1650   -5.6520   -2.2050 H       6  IDS6        0.0524
    265  O3         5.9170    8.1810    0.6610 O.3     1  SGN1       -0.3874
    266  O3         5.9490    6.2890    1.1460 O.3     1  SGN1       -0.3938
    267  N        -12.6360   -7.5200    1.6660 N.4     7  SGN7        0.4357
    268  N        -12.3950   -7.5830    1.2360 N.3     7  SGN7       -0.2801
    269  H1       -20.2590  -17.9150   -0.3710 H      10  IDS10       0.0938
    270  H1       -18.8310  -19.1100   -0.2160 H      10  IDS10       0.0523
    271  O2         2.5290    8.4270    5.1980 O.3     2  IDS2       -0.2435
    272  O2         0.8440    6.0980    4.0670 O.3     2  IDS2       -0.4105
    273  H3         1.2920    6.3950    4.1710 H       2  IDS2        0.0649
    274  H3         0.1690    7.6990    2.0990 H       2  IDS2        0.0521
    275  H3        -1.5240   -2.1930   -0.8270 H       4  IDS4        0.0649
    276  H3        -0.2820   -2.8910    0.3740 H       4  IDS4        0.0000
    277  O62      -28.0320  -24.6700   -1.7830 O.3    12  IDS12      -0.1573
    278  O62      -27.6900  -26.9330   -1.2530 O.3    12  IDS12      -0.2329
    279  C3        -0.8380   -2.2280    0.0520 C.3     4  IDS4        0.1170
    280  C3        -0.7850   -1.9310    0.6460 C.3     4  IDS4       -0.0341
    281  H2        -9.4760   -3.3650    0.4610 H       6  IDS6        0.0698
    282  H2        -8.9530   -4.6490    1.8230 H       6  IDS6        0.0000
    283  O1S      -14.2340   -5.6210    1.5260 O.3     7  SGN7       -0.0709
    284  O1S      -14.0920   -5.9430    1.8950 O.3     7  SGN7        0.0000
    285  C6       -15.1190  -13.3550    0.7980 C.3     8  IDS8        0.2882
    286  C6       -15.5600  -13.2230   -0.0330 C.3     8  IDS8        0.1448
    287  O4S      -25.5200  -24.2320   -7.9780 O.3    11  SGN11      -0.0773
    288  O4S      -26.8380  -21.7340   -7.5680 O.3    11  SGN11      -0.0760
    289  H5        -0.8860   -0.7650    2.6310 H       4  IDS4        0.0676
    290  H5        -2.2360   -0.2090    2.2480 H       4  IDS4        0.0641
    291  N          8.7480    8.8880    0.4440 N.3     1  SGN1       -0.1774
    292  N          8.6450    7.4040    1.3850 N.3     1  SGN1       -0.3279
    293  O2S        2.3240    0.8730   -0.6830 O.2     4  IDS4       -0.3452
    294  O2S       -2.2480   -2.9080   -3.5930 O.2     4  IDS4       -0.1156
    295  H4         6.0970    6.6430    2.7260 H       1  SGN1        0.0650
    296  H4         5.5400    5.8240    3.6530 H       1  SGN1        0.0194
    297  O3         0.0190   -3.3340   -0.1220 O.3     4  IDS4       -0.3863
    298  O3         0.0810   -1.2710    1.5450 O.3     4  IDS4       -0.4105
    299  C6         6.7240    7.1840    5.4650 C.3     1  SGN1        0.1076
    300  C6         5.2000    7.5710    5.8930 C.3     1  SGN1        0.0330
    301  C1        -3.0220   -4.2910    0.8170 C.3     5  SGN5        0.1788
    302  C1        -2.7490   -4.3990    0.6580 C.3     5  SGN5       -0.0776
    303  O5S        6.1720    3.4920    5.2620 O.2     1  SGN1       -0.1162
    304  O5S        4.9810    4.1050    7.2720 O.3     1  SGN1        0.0000
    305  C5       -12.1650   -9.0570   -2.2110 C.3     7  SGN7        0.1153
    306  C5       -12.0940   -8.7860   -2.7650 C.3     7  SGN7       -0.0776
    307  O3        -5.8560   -4.5580   -1.6220 O.3     5  SGN5       -0.3874
    308  O3        -5.2380   -5.7610   -1.7910 O.3     5  SGN5       -0.3982
    309  S1       -13.6530  -17.6550   -4.2810 S.3     9  SGN9        0.2646
    310  S1       -14.5330  -17.3260   -5.7390 S.3     9  SGN9        0.2448
    311  O3S      -12.8540  -16.7700   -5.0820 O.3     9  SGN9       -0.0882
    312  O3S      -14.3440  -16.3720   -6.7980 O.3     9  SGN9       -0.0976
    313  O2S       -9.4700  -11.9110   -2.6060 O.2     8  IDS8       -0.3452
    314  O2S      -14.5140  -14.7400   -6.3220 O.3     8  IDS8       -0.0877
    315  C2       -25.0350  -20.4940   -2.3080 C.3    11  SGN11       0.0848
    316  C2       -24.6820  -20.4590   -1.2100 C.3    11  SGN11      -0.0176
    317  O61      -21.1480  -19.5660   -5.5350 O.3    10  IDS10      -0.1941
    318  O61      -19.6190  -20.3890   -4.6060 O.3    10  IDS10      -0.4105
    319  H62        5.7490    7.5350    5.8750 H       1  SGN1        0.0611
    320  H62        4.1240    7.8540    5.8210 H       1  SGN1        0.0521
    321  HN        -3.6330   -3.4260   -2.2260 H       5  SGN5        0.1404
    322  HN        -3.2050   -4.3790   -2.5310 H       5  SGN5        0.1180
    323  C4        -5.8710   -4.7730    0.7580 C.3     5  SGN5        0.1175
    324  C4        -5.4460   -5.4340    0.5660 C.3     5  SGN5       -0.0776
    325  S         -9.4010   -2.3810    3.0620 S.3     6  IDS6       -0.0004
    326  S        -10.5410   -6.4450    3.1540 S.3     6  IDS6        0.3202
    327  O4S        4.9190    4.9800    6.6370 O.3     1  SGN1       -0.0440
    328  O4S        3.2550    5.7380    7.4230 O.2     1  SGN1       -0.1323
    329  O2S      -20.2450  -14.2670   -0.1570 O.2    10  IDS10      -0.3452
    330  O2S      -22.4820  -20.1540    2.1340 O.3    10  IDS10      -0.0871
    331  H1       -14.0860  -17.3020   -1.0420 H       9  SGN9        0.0927
    332  H1       -13.5730  -16.7680   -2.1660 H       9  SGN9        0.0194
    333  O5        -8.3060   -6.1030    0.1250 O.3     6  IDS6       -0.3372
    334  O5        -7.8680   -7.1110   -0.2010 O.3     6  IDS6       -0.3775
    335  H5       -11.0580   -8.9820   -2.0840 H       7  SGN7        0.0647
    336  H5       -11.0220   -9.0210   -2.5700 H       7  SGN7        0.0194
    337  S2        -6.2290   -7.5090    4.1590 S.3     5  SGN5        0.3153
    338  S2        -5.6360   -7.3490    4.5010 S.2     5  SGN5        0.2278
    339  C3        -0.3600    2.8820    2.6780 C.3     3  SGN3        0.1055
    340  C3        -1.5340    2.9330    1.9150 C.3     3  SGN3        0.0330
    341  O1S       10.7160    7.4080    0.1020 O.3     1  SGN1       -0.0534
    342  O1S       10.7050    6.3540    2.2940 O.2     1  SGN1       -0.1067
    343  O2S       -2.4050    4.5610    5.7760 O.3     3  SGN3       -0.0475
    344  O2S       -4.0810    5.3450    3.9880 O.2     3  SGN3       -0.1259
    345  C3       -24.5170  -21.9380   -2.2450 C.3    11  SGN11       0.1316
    346  C3       -24.5330  -21.8910   -1.7450 C.3    11  SGN11      -0.0776
    347  O2S       -2.7050   -5.6770   -3.2930 O.3     5  SGN5       -0.0815
    348  O2S       -1.7880   -6.5840   -2.9780 O.3     5  SGN5       -0.0183
    349  C4        -0.7990    2.4950    1.2580 C.3     3  SGN3        0.1176
    350  C4        -1.5480    2.4510    0.4570 C.3     3  SGN3       -0.0681
    351  O3       -11.9000   -4.3090    0.7740 O.3     6  IDS6       -0.3863
    352  O3        -9.1550   -3.8690   -0.6490 O.3     6  IDS6       -0.3982
    353  C4       -12.7390  -10.0520   -1.1850 C.3     7  SGN7        0.1213
    354  C4       -12.9750   -9.6980   -1.8910 C.3     7  SGN7       -0.0776
    355  O4S      -14.0200  -11.2550   -5.5740 O.3     7  SGN7       -0.0768
    356  O4S      -14.0500  -10.0910   -6.4860 O.3     7  SGN7       -0.0758
    357  H5         0.7590    3.6910    0.3020 H       3  SGN3        0.0647
    358  H5         0.4620    3.2070    0.0480 H       3  SGN3        0.0227
    359  H62       -6.5880   -4.6590    3.5830 H       5  SGN5        0.0601
    360  H62       -6.4430   -4.8290    3.2390 H       5  SGN5        0.0000
    361  O5         3.6910    6.4050    2.4910 O.3     2  IDS2       -0.3314
    362  O5         3.0830    5.1980    2.5150 O.3     2  IDS2       -0.3450
    363  HO3      -11.5080  -16.0940   -2.7130 H       8  IDS8        0.2100
    364  HO3      -10.7170  -13.4390   -2.0480 H       8  IDS8        0.0000
    365  C6       -12.4330   -9.4160   -3.6790 C.3     7  SGN7        0.0970
    366  C6       -12.3090   -8.9010   -4.2780 C.3     7  SGN7        0.0663
    367  H5       -17.1900  -15.6910   -0.1560 H       9  SGN9        0.0648
    368  H5       -16.6840  -15.8820   -0.5340 H       9  SGN9        0.0521
    369  C6        -5.5840   -5.0640    3.3160 C.3     5  SGN5        0.0958
    370  C6        -5.3610   -5.0780    3.1330 C.3     5  SGN5        0.0330
    371  O6       -13.8240   -9.5670   -3.8600 O.3     7  SGN7       -0.2528
    372  O6       -13.6700   -8.6740   -4.5650 O.3     7  SGN7       -0.2314
    373  H3         0.7530    2.8460    2.7710 H       3  SGN3        0.0638
    374  H3        -0.5540    2.7040    2.3980 H       3  SGN3        0.0521
    375  H3       -11.3460   -9.5700    0.4410 H       7  SGN7        0.0679
    376  H3       -11.5840   -9.7520   -0.2000 H       7  SGN7        0.0559
    377  C4       -13.7020  -14.9060   -0.6830 C.3     8  IDS8        0.1216
    378  C4       -13.7200  -14.3740   -1.4340 C.3     8  IDS8        0.0330
    379  HO3      -24.2090  -16.4020   -1.3340 H      10  IDS10       0.2100
    380  HO3      -21.0770  -15.5590   -1.2260 H      10  IDS10       0.0000
    381  O5       -26.0290  -25.1020   -3.5360 O.3    12  IDS12      -0.3343
    382  O5       -26.7910  -24.4970   -3.4090 O.3    12  IDS12      -0.3928
    383  C2        -0.0120   -0.9390    0.0930 C.3     4  IDS4        0.1644
    384  C2        -0.9970   -1.0430   -0.5850 C.3     4  IDS4        0.1102
    385  O6       -25.4630  -22.3800   -6.4320 O.3    11  SGN11      -0.2531
    386  O6       -26.1890  -20.5940   -5.5390 O.3    11  SGN11      -0.2125
    387  C6         3.0170    6.0470    0.1980 C.2     2  IDS2        0.3431
    388  C6         2.9940    4.3650    0.2550 C.3     2  IDS2        0.3517
    389  O5       -20.3040  -18.6060   -2.2500 O.3    10  IDS10      -0.3372
    390  O5       -19.7440  -19.4230   -1.9820 O.3    10  IDS10      -0.3862
    391  C6        -8.7400   -6.6820   -2.1790 C.3     6  IDS6        0.2591
    392  C6        -8.2470   -7.6740   -2.5150 C.3     6  IDS6        0.3032
    393  O2S       -8.0890   -1.9960    2.6370 O.2     6  IDS6       -0.3452
    394  O2S      -11.1860   -7.7190    3.2960 O.2     6  IDS6       -0.1067
    395  O3       -23.9610  -28.6060   -3.6090 O.3    12  IDS12      -0.3862
    396  O3       -23.5630  -25.7430   -3.5990 O.3    12  IDS12      -0.4105
    397  S1       -13.7450   -6.6030    2.4450 S.3     7  SGN7        0.2580
    398  S1       -13.5300   -7.1860    2.3440 S.3     7  SGN7        0.2308
    399  O3       -23.8990  -16.7010   -2.1720 O.3    10  IDS10      -0.3863
    400  O3       -21.0970  -16.2340   -1.8820 O.3    10  IDS10      -0.4105
    401  H2       -21.4310  -15.8320   -2.3180 H      10  IDS10       0.0698
    402  H2       -20.4150  -17.1900    0.4460 H      10  IDS10       0.0571
    403  O3         0.1620    8.0320    3.6970 O.3     2  IDS2       -0.3863
    404  O3         1.9870    8.3860    1.5140 O.3     2  IDS2       -0.3982
    405  S2        -3.0460    2.9010   -2.4790 S.3     3  SGN3        0.3312
    406  S2        -2.2700    2.7760   -3.8500 S.3     3  SGN3        0.3287
    407  S          2.0770   -0.3040   -1.4580 S.3     4  IDS4       -0.0004
    408  S         -1.1550   -2.1960   -2.9980 S.O2    4  IDS4        0.2391
    409  O3       -25.2840  -22.6670   -1.3110 O.3    11  SGN11      -0.3833
    410  O3       -25.2620  -22.7770   -0.9260 O.3    11  SGN11      -0.4105
    411  H2         8.1440    7.0110    1.2560 H       1  SGN1        0.0555
    412  H2         7.9290    5.9560    2.7770 H       1  SGN1        0.0444
    413  C1       -12.8230  -12.3500   -1.8790 C.3     8  IDS8        0.1911
    414  C1       -13.6210  -11.8190   -2.8150 C.3     8  IDS8        0.0361
    415  H3       -22.9950  -18.2260   -1.1540 H      10  IDS10       0.0649
    416  H3       -22.6100  -17.0680   -0.8450 H      10  IDS10       0.0252
    417  O62      -19.5390  -20.1130   -4.3510 O.3    10  IDS10      -0.3588
    418  O62      -21.6780  -20.2460   -4.6210 O.3    10  IDS10      -0.2262
    419  C6       -17.9080  -17.2880    1.0930 C.3     9  SGN9        0.1077
    420  C6       -16.6130  -17.4800    0.8890 C.3     9  SGN9       -0.0776
    421  O3S      -22.5560  -13.7730   -0.5350 O.3    10  IDS10      -0.2682
    422  O3S      -20.1000  -20.1880    2.0720 O.3    10  IDS10      -0.0770
    423  O2S      -21.3280  -24.6510   -4.4870 O.2    12  IDS12      -0.3452
    424  O2S      -27.2380  -26.3700   -8.0170 O.2    12  IDS12      -0.1915
    425  C3       -12.7720  -14.8720   -1.9080 C.3     8  IDS8        0.1170
    426  C3       -12.5280  -14.0610   -2.3490 C.3     8  IDS8       -0.0776
    427  HN         8.0450    9.4240   -0.0530 H       1  SGN1        0.1487
    428  HN         8.1110    7.5280    0.5320 H       1  SGN1        0.1183
    429  C4         6.1600    7.7250    2.9940 C.3     1  SGN1        0.1176
    430  C4         5.4430    6.9060    3.4000 C.3     1  SGN1       -0.0776
    431  O3S        1.7700   10.6580    5.5870 O.3     2  IDS2       -0.2682
    432  O3S        0.9590    6.5990    6.4140 O.3     2  IDS2       -0.0363
    433  H4        -1.1180   -3.0880    2.0840 H       4  IDS4        0.0652
    434  H4        -1.9170   -2.6740    2.3580 H       4  IDS4        0.0194
    435  H4        -5.9330   -5.8760    0.5950 H       5  SGN5        0.0650
    436  H4        -5.2920   -6.5350    0.6710 H       5  SGN5        0.0194
    437  O4S       -2.5270    1.7050   -3.0710 O.3     3  SGN3       -0.0776
    438  O4S       -1.8540    1.4410   -4.1500 O.3     3  SGN3       -0.0854
    439  O61       -9.4780   -6.7470   -3.1360 O.3     6  IDS6       -0.1893
    440  O61       -7.4020   -8.5370   -2.4510 O.3     6  IDS6       -0.3434
    441  H5       -20.5070  -17.4100   -3.9020 H      10  IDS10       0.0680
    442  H5       -19.9830  -18.0100   -3.4560 H      10  IDS10       0.0000
    443  H62      -23.5770  -23.2100   -6.2530 H      11  SGN11       0.0601
    444  H62      -24.5520  -21.7550   -6.0470 H      11  SGN11       0.0000
    445  O4       -27.0340  -27.8980   -3.2290 O.3    12  IDS12      -0.2261
    446  O4       -26.8340  -27.3510   -3.8840 O.3    12  IDS12      -0.2376
    447  H1        -2.0140   -4.7650    0.7990 H       5  SGN5        0.0927
    448  H1        -1.6750   -4.6570    0.8080 H       5  SGN5        0.0000
    449  C5       -20.9250  -18.3620   -3.4950 C.3    10  IDS10       0.1489
    450  C5       -20.5360  -18.8730   -3.0200 C.3    10  IDS10       0.0361
    451  O6S       -2.9520    4.0470   -3.3330 O.3     3  SGN3       -0.0776
    452  O6S       -1.6490    3.7650   -4.6800 O.3     3  SGN3       -0.0862
    453  HO3        0.3500   -3.3300   -1.0030 H       4  IDS4        0.2100
    454  HO3        0.9480   -1.2520    1.1780 H       4  IDS4        0.2052
    455  O6S       -5.3250   -7.5060    5.2700 O.3     5  SGN5       -0.0708
    456  O6S       -4.8600   -6.9170    5.6260 O.3     5  SGN5       -0.0175
    457  H3        -5.2650   -3.0160   -0.4100 H       5  SGN5        0.0638
    458  H3        -5.0540   -3.9000   -0.9550 H       5  SGN5        0.0521
    459  C5       -13.9200  -13.4820   -0.1350 C.3     8  IDS8        0.1518
    460  C5       -14.3360  -13.0550   -0.9280 C.3     8  IDS8        0.0361
    461  O1        -0.1470    1.2750    0.9380 O.3     4  IDS4       -0.3401
    462  O1        -1.1060    1.1020    0.4600 O.3     4  IDS4       -0.4105
    463  O1S      -21.1700  -25.9980   -6.4470 O.2    12  IDS12      -0.3452
    464  O1S      -25.2810  -25.0480   -8.1880 O.3    12  IDS12      -0.0854
    465  HN         0.0160    3.9770    4.8450 H       3  SGN3        0.1494
    466  HN        -1.6760    4.2100    4.0090 H       3  SGN3        0.1180
    467  C5        -5.0540   -4.4390    2.0180 C.3     5  SGN5        0.1149
    468  C5        -4.8290   -4.6700    1.7510 C.3     5  SGN5       -0.0776
    469  H4        -1.9090    2.3670    1.2460 H       3  SGN3        0.0650
    470  H4        -2.5880    2.5290    0.0610 H       3  SGN3        0.0227
    471  C2       -23.8840  -26.2170   -3.8860 C.3    12  IDS12       0.1645
    472  C2       -25.2410  -25.0550   -5.1650 C.3    12  IDS12       0.0673
    473  O1S       -1.0460   -5.4540   -1.5820 O.3     5  SGN5       -0.0815
    474  O1S       -0.3720   -5.6580   -1.2850 O.3     5  SGN5       -0.0183
    475  O3       -11.9310  -16.0030   -1.8770 O.3     8  IDS8       -0.3863
    476  O3       -11.5100  -13.5060   -1.5430 O.3     8  IDS8       -0.4105
    477  O2         0.6160   -0.7730   -1.1620 O.3     4  IDS4       -0.2435
    478  O2        -1.6640   -1.8040   -1.5740 O.3     4  IDS4       -0.2085
    479  O2       -21.8730  -16.0500   -0.3070 O.3    10  IDS10      -0.2435
    480  O2       -21.3350  -19.0350    0.3850 O.3    10  IDS10      -0.2656
    481  O1       -22.9770  -19.5720   -3.1680 O.3    11  SGN11      -0.3376
    482  O1       -22.6350  -19.5430   -2.0860 O.3    11  SGN11      -0.3572
    483  O5       -24.5170  -20.4150   -4.6580 O.3    11  SGN11      -0.3381
    484  O5       -24.5440  -19.6230   -3.4690 O.3    11  SGN11      -0.3517
    485  C2       -11.9220  -13.5980   -1.9090 C.3     8  IDS8        0.1644
    486  C2       -12.9180  -13.0400   -3.4220 C.3     8  IDS8        0.0559
    487  C2       -21.5730  -16.6370   -1.5570 C.3    10  IDS10       0.1644
    488  C2       -20.6840  -17.9810   -0.2960 C.3    10  IDS10       0.0642
    489  H3       -23.4520  -21.9770   -1.9110 H      11  SGN11       0.0679
    490  H3       -23.4670  -22.2230   -1.7280 H      11  SGN11       0.0000
    491  H1        -1.3220    0.6540   -0.6220 H       4  IDS4        0.0938
    492  H1        -2.1650    0.6580   -1.2390 H       4  IDS4        0.0586
    493  H2         0.7690   -1.0360    0.8860 H       4  IDS4        0.0698
    494  H2        -0.0090   -0.7160   -0.9930 H       4  IDS4        0.0641
    495  O5       -12.7230   -7.7680   -2.0020 O.3     7  SGN7       -0.3380
    496  O5       -12.3170   -7.4250   -2.4340 O.3     7  SGN7       -0.3669
    497  H2       -11.2330  -13.6250   -1.0300 H       8  IDS8        0.0698
    498  H2       -12.0040  -12.7160   -3.9770 H       8  IDS8        0.0538
    499  H5         7.1280    9.0360    4.4510 H       1  SGN1        0.0648
    500  H5         5.7950    8.8720    4.2880 H       1  SGN1        0.0194
    501  C2        -9.5240   -4.2470    1.1450 C.3     6  IDS6        0.1644
    502  C2        -9.0930   -5.4990    1.1100 C.3     6  IDS6        0.0330
    503  O3S       -8.8970  -14.2320   -2.7200 O.3     8  IDS8       -0.2682
    504  O3S      -14.6280  -12.3660   -6.1500 O.3     8  IDS8       -0.0861
    505  O6       -18.0170  -18.6940    1.0480 O.3     9  SGN9       -0.2112
    506  O6       -16.3620  -18.8680    0.9120 O.2     9  SGN9       -0.1133
    507  C3       -22.7600  -17.5090   -1.9770 C.3    10  IDS10       0.1170
    508  C3       -21.6610  -17.4030   -1.3250 C.3    10  IDS10      -0.0402
    509  C5        -9.0590   -5.7500   -1.0160 C.3     6  IDS6        0.1491
    510  C5        -8.3790   -6.6170   -1.4250 C.3     6  IDS6        0.1068
    511  H61      -17.3000  -17.0180    1.9880 H       9  SGN9        0.0611
    512  H61      -15.8870  -16.9890    1.5790 H       9  SGN9        0.0194
    513  H3       -13.3590  -14.9180   -2.8560 H       8  IDS8        0.0649
    514  H3       -12.0770  -14.9760   -2.7980 H       8  IDS8        0.0194
    515  O6        -5.6760   -6.4610    3.1410 O.3     5  SGN5       -0.2626
    516  O6        -5.1830   -6.4680    3.2920 O.3     5  SGN5       -0.3982
    517  HN       -24.5290  -20.4290   -0.3080 H      11  SGN11       0.2308
    518  HN       -23.3510  -20.9980    0.2790 H      11  SGN11       0.1146
    519  O3S        2.9170   -1.4100   -1.0950 O.3     4  IDS4       -0.2682
    520  O3S       -0.8590   -0.9700   -3.6780 O.2     4  IDS4       -0.1156
    521  O1S       -9.4840   -2.5670    4.4840 O.2     6  IDS6       -0.3452
    522  O1S      -11.4710   -5.3540    3.1410 O.2     6  IDS6       -0.1067
    523  O5        -3.7180   -4.8970    1.8670 O.3     5  SGN5       -0.3414
    524  O5        -3.4240   -4.8780    1.7840 O.3     5  SGN5       -0.4105
    525  C5       -23.9730  -21.7270   -4.6740 C.3    11  SGN11       0.1153
    526  C5       -24.3610  -20.9170   -4.0220 C.3    11  SGN11       0.0761
    527  C4       -17.9160  -17.2560   -1.4980 C.3     9  SGN9        0.1176
    528  C4       -17.2700  -17.6710   -1.6220 C.3     9  SGN9       -0.0776
    529  C5         2.8130    6.8500    1.4780 C.3     2  IDS2        0.1866
    530  C5         2.7570    5.5500    1.1820 C.3     2  IDS2        0.1439
    531  N        -14.7900  -16.6900   -3.6110 N.3     9  SGN9       -0.1916
    532  N        -15.0200  -16.4430   -4.4540 N.3     9  SGN9       -0.2251
    533  C3       -17.0890  -16.7500   -2.6900 C.3     9  SGN9        0.1049
    534  C3       -16.9270  -17.0310   -2.9750 C.3     9  SGN9       -0.0776
    535  H3       -17.1440  -15.6370   -2.7640 H       9  SGN9        0.0638
    536  H3       -17.2790  -15.9710   -3.0050 H       9  SGN9        0.0194
    537  H4       -25.5100  -27.8840   -1.7930 H      12  IDS12       0.0684
    538  H4       -25.2440  -27.3740   -2.5670 H      12  IDS12       0.0555
    539  O61       -3.0460   -2.0020    3.8680 O.3     4  IDS4       -0.1948
    540  O61       -5.0850   -0.2370    2.1370 O.3     4  IDS4       -0.3392
    541  H1       -12.9480   -6.2280   -0.7230 H       7  SGN7        0.0971
    542  H1       -12.3030   -6.0200   -0.9930 H       7  SGN7        0.0908
    543  HO3      -17.3030  -16.8210   -4.6180 H       9  SGN9        0.2100
    544  HO3      -17.6020  -17.2120   -4.7760 H       9  SGN9        0.2052
    545  C1       -12.4250   -7.2120   -0.7560 C.3     7  SGN7        0.2071
    546  C1       -11.9910   -7.0810   -1.1200 C.3     7  SGN7        0.1578
    547  O5S      -18.6330  -20.9310    1.5080 O.2     9  SGN9       -0.1156
    548  O5S      -16.3500  -21.1440    1.5650 O.2     9  SGN9       -0.1133
    549  C2        -0.9050    4.2760    3.0220 C.3     3  SGN3        0.1086
    550  C2        -1.8470    4.4350    1.9630 C.3     3  SGN3       -0.0188
    551  C6       -24.0950  -22.2320   -6.1190 C.3    11  SGN11       0.0970
    552  C6       -24.7960  -20.8210   -5.4910 C.3    11  SGN11       0.1023
    553  C3         1.3320    7.2730    3.4830 C.3     2  IDS2        0.1174
    554  C3         1.2200    7.3300    2.0520 C.3     2  IDS2        0.0330
    555  HO3      -25.0310  -22.4230   -0.4380 H      11  SGN11       0.2102
    556  HO3      -24.7850  -22.9170   -0.1270 H      11  SGN11       0.0000
    557  O4S       -7.5590   -7.1090    4.5060 O.3     5  SGN5       -0.0870
    558  O4S       -7.0440   -7.1500    4.6710 O.2     5  SGN5       -0.2278
    559  C2         8.1580    8.0960    1.5240 C.3     1  SGN1        0.1109
    560  C2         7.7860    7.0320    2.5100 C.3     1  SGN1        0.0164
    561  O1S        2.9400    9.4550    7.2890 O.2     2  IDS2       -0.3452
    562  O1S       -0.8620    7.4240    5.1050 O.2     2  IDS2       -0.1324
    563  O2       -11.1600  -13.5710   -3.0990 O.3     8  IDS8       -0.2435
    564  O2       -13.7980  -13.6710   -4.3310 O.3     8  IDS8       -0.2687
    565  H1         4.1250    6.7150    4.4210 H       2  IDS2        0.0939
    566  H1         3.3480    5.8640    4.3970 H       2  IDS2        0.0869
    567  O62      -15.8440  -12.3880    0.7700 O.3     8  IDS8       -0.1938
    568  O62      -15.9660  -14.3090    0.3100 O.3     8  IDS8       -0.2260
    569  O3S      -20.8070  -26.9810   -4.3010 O.3    12  IDS12      -0.2682
    570  O3S      -27.3420  -24.0480   -7.4850 O.3    12  IDS12      -0.0854
    571  O3       -13.0930  -10.3640    1.1570 O.3     7  SGN7       -0.3833
    572  O3       -13.4930  -10.1700    0.3980 O.3     7  SGN7       -0.3948
    573  HO3      -12.7510  -10.2040    2.0190 H       7  SGN7        0.2102
    574  HO3      -13.1400  -10.1950    1.2700 H       7  SGN7        0.2094
    575  C1       -24.7480  -24.9590   -4.0820 C.3    12  IDS12       0.1912
    576  C1       -25.8530  -23.9540   -4.2910 C.3    12  IDS12       0.0673
    577  H1       -13.1080  -12.0670   -2.9170 H       8  IDS8        0.0938
    578  H1       -14.0620  -11.2050   -3.6300 H       8  IDS8        0.0523
    579  O3S      -10.4350   -1.5270    2.5550 O.3     6  IDS6       -0.2682
    580  O3S       -9.4710   -6.2620    4.0880 O.2     6  IDS6       -0.1067
    581  O62       -7.7440   -7.3690   -2.1880 O.3     6  IDS6       -0.2874
    582  O62       -8.9760   -7.6640   -3.4780 O.3     6  IDS6       -0.1704
    583  HO3        6.0800    8.8030   -0.0260 H       1  SGN1        0.2100
    584  HO3        6.2900    6.5880    0.3230 H       1  SGN1        0.2095
    585  C1        -0.9230    0.2760    0.3460 C.3     4  IDS4        0.1911
    586  C1        -1.8640    0.1850   -0.2780 C.3     4  IDS4        0.0763
    587  O1S       -2.0600    6.5910    4.5540 O.3     3  SGN3       -0.0397
    588  O1S       -2.9150    7.1010    2.8530 O.2     3  SGN3       -0.1259
    589  H1         9.9990    7.8260    2.6300 H       1  SGN1        0.0957
    590  H1         9.1740    7.6300    4.0570 H       1  SGN1        0.0000
    591  HO3        0.0330    8.1400    4.6240 H       2  IDS2        0.2100
    592  HO3        1.7960    9.1760    1.9880 H       2  IDS2        0.2090
    593  C2       -12.9850   -8.0970    0.3680 C.3     7  SGN7        0.0950
    594  C2       -12.8100   -7.9220   -0.1240 C.3     7  SGN7        0.0214
    595  HN       -12.2680   -8.2200    2.3000 H       7  SGN7        0.2426
    596  HN       -11.7250   -8.2490    1.6080 H       7  SGN7        0.1700
    597  HO3       -5.6060   -4.0130   -2.3480 H       5  SGN5        0.2100
    598  HO3       -5.0190   -5.3550   -2.6110 H       5  SGN5        0.2090
    599  O1         9.1010    9.6270    3.1370 O.3     1  SGN1       -0.2037
    600  O1         8.0480    9.2540    3.4220 O.3     1  SGN1       -0.2475
    601  O1         0.9020    5.4750    1.9650 O.3     3  SGN3       -0.3406
    602  O1         0.4250    5.1320    1.5480 O.3     3  SGN3       -0.3698
    603  H        -10.6430   -6.7020    1.1570 H       6  IDS6        0.2090
    604  H          4.2670    3.5400    1.3390 H       2  IDS2        0.2164
    605  H         -2.5070   -0.9680    2.1420 H       4  IDS4        0.0969
    606  H         -9.3360   -5.3600    0.7390 H       6  IDS6        0.0521
    607  H         -9.8080   -5.8090   -0.8590 H       6  IDS6        0.0521
    608  H        -15.1010  -16.3850   -3.0020 H       9  SGN9        0.0194
    609  H        -14.7310  -15.5940   -1.4890 H       9  SGN9        0.0194
    610  H        -15.1450  -17.2910   -1.5080 H       9  SGN9        0.0194
    611  H        -17.2480  -17.2110   -3.2570 H       9  SGN9        0.2052
    612  H        -24.4140  -20.2570   -1.5790 H      11  SGN11       0.0871
    613  H        -25.8600  -26.2740   -6.5740 H      12  IDS12       0.2095
    614  H        -21.7970  -17.7310   -1.6410 H      10  IDS10       0.0524
    615  H        -20.9190  -18.6830   -2.8040 H      10  IDS10       0.0524
    616  H        -14.8060  -18.0360   -0.8500 H       9  SGN9        0.2090
    617  H          6.7100    8.2340    1.7750 H       1  SGN1        0.0000
    618  H         -1.3120   -2.4300    0.6950 H       4  IDS4        0.0194
    619  H         -2.1700   -1.1330    1.4920 H       4  IDS4        0.0194
    620  H         -3.0330   -2.5590    0.9690 H       4  IDS4        0.0194
    621  H        -15.0660  -14.6200   -2.8500 H       9  SGN9        0.2090
    622  H        -11.6890  -11.0580   -2.1400 H       8  IDS8        0.2052
    623  H        -12.9820  -11.5380   -1.3620 H       8  IDS8        0.2052
    624  H         -2.5800    5.5110    3.5300 H       3  SGN3        0.1180
    625  H         -4.3020   -4.9650   -0.7160 H       5  SGN5        0.0386
    626  H         -2.8900   -4.6100    0.2670 H       5  SGN5        0.0386
    627  H         -3.7080   -5.0410   -0.6460 H       5  SGN5        0.0521
    628  H         -5.2060   -5.2710    0.1990 H       5  SGN5        0.0521
    629  H          2.4510    7.9100    4.0670 H       2  IDS2        0.0000
    630  H         -1.7580    4.6740   -0.7110 H       3  SGN3        0.2122
    631  H        -16.1400  -16.9670   -2.4530 H       9  SGN9        0.0194
    632  H        -15.8220  -16.8290   -4.1650 H       9  SGN9        0.0194
    633  H        -14.5390  -16.5450   -3.0130 H       9  SGN9        0.0194
    634  H          2.3800    5.9160    1.2130 H       2  IDS2        0.0194
    635  H          0.7700    5.2490    1.3320 H       2  IDS2        0.0194
    636  H          1.0620    6.9120    1.7810 H       2  IDS2        0.0194
    637  H        -17.6790  -17.4360   -1.3890 H      10  IDS10       0.2052
    638  H        -18.9720  -16.6560   -1.8660 H      10  IDS10       0.2052
    639  H        -12.8380   -9.5660   -1.4590 H       7  SGN7        0.0559
    640  H         -8.6790   -5.6730    0.9880 H       6  IDS6        0.0524
    641  H         -7.0600   -5.3600    0.4880 H       6  IDS6        0.0524
    642  H          9.2100    7.8900    3.7340 H       1  SGN1        0.0194
    643  H          7.7830    7.1500    3.0480 H       1  SGN1        0.0194
    644  H          7.7830    8.8540    3.4360 H       1  SGN1        0.0194
    645  H          7.7830    7.6660    4.7180 H       1  SGN1        0.0194
    646  H         -1.9410   -3.0160    0.5320 H       5  SGN5        0.2052
    647  H         -3.2340   -2.2410    1.0170 H       5  SGN5        0.2052
    648  H         -0.1790    2.0070   -2.0740 H       3  SGN3        0.0194
    649  H         -1.5300    3.1090   -2.1760 H       3  SGN3        0.0194
    650  H         -0.4510    3.1750   -0.8030 H       3  SGN3        0.0194
    651  H         -0.5900    3.0150   -1.3820 H       3  SGN3        0.0227
    652  H         -0.8680    4.3490   -0.2850 H       3  SGN3        0.0227
    653  H        -23.8760  -25.7690   -3.7760 H      12  IDS12       0.0194
    654  H        -25.4100  -26.5940   -3.6320 H      12  IDS12       0.0194
    655  H        -25.1450  -25.4630   -4.9390 H      12  IDS12       0.0194
    656  H         -4.3970   -3.5750    1.6340 H       5  SGN5        0.0000
    657  H         -2.0750   -3.7260   -1.5150 H       5  SGN5        0.1180
    658  H          8.2750    7.5660    4.8070 H       1  SGN1        0.2052
    659  H          6.9820    7.0330    5.5500 H       1  SGN1        0.2052
    660  H        -24.2500  -20.2350   -0.8910 H      11  SGN11       0.1146
    661  H        -23.7660  -19.4010    0.4670 H      11  SGN11       0.1146
    662  H          4.1050    6.3180    0.8350 H       2  IDS2        0.0000
    663  H        -20.3020  -18.1310   -0.5130 H      10  IDS10       0.0523
    664  H        -18.8530  -17.6950   -1.3360 H      10  IDS10       0.0523
    665  H          1.6910    3.6680   -0.8800 H       2  IDS2        0.2164
    666  H          5.7040    7.0240    3.0300 H       1  SGN1        0.0570
    667  H          6.1280    8.2050    1.8160 H       1  SGN1        0.0570
    668  H        -23.8390  -23.2690   -3.6620 H      12  IDS12       0.2052
    669  H        -25.1320  -22.5490   -3.0980 H      12  IDS12       0.2052
    670  H          4.8980    5.6660    5.5420 H       1  SGN1        0.2090
    671  H        -19.8710  -20.6530   -4.2330 H      10  IDS10       0.0648
    672  H        -20.6310  -19.6870   -3.0970 H      10  IDS10       0.0648
    673  H        -26.1600  -25.2160   -3.5530 H      12  IDS12       0.0194
    674  H        -27.2120  -25.1080   -2.1630 H      12  IDS12       0.0194
    675  H        -26.2280  -26.5310   -2.4040 H      12  IDS12       0.0194
    676  H        -16.6370  -11.4390    0.5940 H       8  IDS8        0.2532
    677  H         -1.4940    4.6330    1.7130 H       3  SGN3        0.0867
    678  H         -5.8570   -5.1240    0.4550 H       6  IDS6        0.2052
    679  H         -7.1500   -4.3850    0.9940 H       6  IDS6        0.2052
    680  H        -24.6510  -21.3720   -3.9440 H      11  SGN11       0.0194
    681  H        -24.9090  -23.0030   -3.3710 H      11  SGN11       0.0194
    682  H        -24.6670  -21.7040   -2.2280 H      11  SGN11       0.0194
    683  H        -12.9720  -12.5120   -0.2980 H       8  IDS8        0.0000
    684  H          2.1850    6.8000    3.3460 H       2  IDS2        0.0869
    685  H          0.5090    1.9760   -2.0360 H       3  SGN3        0.0000
    686  H          4.9770    6.8110    3.0930 H       2  IDS2        0.2122
    687  H         -9.8170   -5.3210   -0.4920 H       6  IDS6        0.0524
    688  H         -8.8200   -6.4660   -1.3920 H       6  IDS6        0.0524
    689  H          6.4870    7.7250    5.4670 H       1  SGN1        0.0194
    690  H          6.4500    7.2930    3.7740 H       1  SGN1        0.0194
    691  H          4.9660    7.3450    4.6960 H       1  SGN1        0.0194
    692  H        -16.6360  -17.3960    0.4140 H       9  SGN9        0.0521
    693  H        -17.0110  -17.4750   -1.2830 H       9  SGN9        0.0521
    694  H        -26.0640  -25.8030   -2.7880 H      12  IDS12       0.0555
    695  H        -25.0260  -26.3980   -4.0510 H      12  IDS12       0.0555
    696  H          2.8270    6.9830    3.4460 H       2  IDS2        0.0194
    697  H          1.4000    6.2410    2.7620 H       2  IDS2        0.0194
    698  H          1.4000    7.9460    3.1460 H       2  IDS2        0.0194
    699  H          1.4000    6.7610    4.4300 H       2  IDS2        0.0194
    700  H         -2.3990   -1.8140    1.3830 H       4  IDS4        0.0641
    701  H        -27.0730  -25.7150   -2.5210 H      12  IDS12       0.0555
    702  H        -26.5080  -25.5420   -0.8760 H      12  IDS12       0.0555
    703  H        -28.1570  -25.1290   -1.2820 H      12  IDS12       0.0555
    704  H        -12.9850   -7.9780    0.5030 H       7  SGN7        0.1700
    705  H          1.8140    6.0980    4.0670 H       2  IDS2        0.2052
    706  H          0.5210    5.3660    4.6160 H       2  IDS2        0.2052
    707  H          0.3380   -2.8910    0.3740 H       4  IDS4        0.0000
    708  H         -0.1770   -2.7700    0.3800 H       4  IDS4        0.0256
    709  H         -1.7320   -2.2770    1.0040 H       4  IDS4        0.0256
    710  H         -0.2980   -1.3660    1.4130 H       4  IDS4        0.0256
    711  H         -8.3330   -4.6490    1.8230 H       6  IDS6        0.0000
    712  H        -16.2790  -12.4320   -0.0770 H       8  IDS8        0.0649
    713  H        -15.1050  -12.9740   -0.9690 H       8  IDS8        0.0649
    714  H          9.1210    8.2780    1.6070 H       1  SGN1        0.1183
    715  H         -0.0230   -0.5340    2.1670 H       4  IDS4        0.2052
    716  H          5.6830    7.7530    4.9560 H       1  SGN1        0.0521
    717  H         -1.6790   -4.3990    0.6580 H       5  SGN5        0.0194
    718  H         -3.1060   -3.6350    1.3170 H       5  SGN5        0.0194
    719  H         -3.1060   -5.3520    0.9900 H       5  SGN5        0.0194
    720  H         -3.1060   -4.2100   -0.3330 H       5  SGN5        0.0194
    721  H        -12.1670   -8.1150   -3.5950 H       7  SGN7        0.0194
    722  H        -12.5220   -8.3280   -1.8980 H       7  SGN7        0.0194
    723  H        -12.6220   -9.6890   -2.9890 H       7  SGN7        0.0194
    724  H        -24.2300  -20.6790   -2.1550 H      11  SGN11       0.0784
    725  H        -24.1030  -21.2160   -0.7240 H      11  SGN11       0.0784
    726  H        -18.6490  -20.3890   -4.6060 H      10  IDS10       0.2052
    727  H        -19.9420  -20.9150   -3.8580 H      10  IDS10       0.2052
    728  H         -5.1760   -5.1290   -0.4230 H       5  SGN5        0.0194
    729  H         -4.8350   -4.9190    1.2770 H       5  SGN5        0.0194
    730  H         -6.4750   -5.1990    0.7440 H       5  SGN5        0.0194
    731  H         -1.5200    2.6190    0.8920 H       3  SGN3        0.0521
    732  H         -1.7290    3.9850    1.9380 H       3  SGN3        0.0521
    733  H        -23.4630  -21.8910   -1.7450 H      11  SGN11       0.0194
    734  H        -24.8900  -22.8820   -1.5550 H      11  SGN11       0.0194
    735  H        -24.8900  -21.5600   -2.6980 H      11  SGN11       0.0194
    736  H        -24.8900  -21.2310   -0.9820 H      11  SGN11       0.0194
    737  H         -1.5380    2.7760    1.4770 H       3  SGN3        0.0227
    738  H         -1.2330    1.4310    0.3810 H       3  SGN3        0.0227
    739  H        -12.6820  -10.5710   -2.4360 H       7  SGN7        0.0194
    740  H        -12.7950   -9.8520   -0.8480 H       7  SGN7        0.0194
    741  H        -12.4060   -8.8580   -2.2310 H       7  SGN7        0.0194
    742  H         -5.8230   -4.8290    3.2390 H       5  SGN5        0.0000
    743  H        -10.0970  -13.4390   -2.0480 H       8  IDS8        0.0000
    744  H        -12.1420   -8.8480   -3.2230 H       7  SGN7        0.0548
    745  H         -6.4000   -4.8340    3.2040 H       5  SGN5        0.0521
    746  H         -5.0050   -4.7630    2.1740 H       5  SGN5        0.0521
    747  H        -14.1020  -13.4270   -1.1140 H       8  IDS8        0.0521
    748  H        -12.9080  -14.2070   -2.1110 H       8  IDS8        0.0521
    749  H        -20.4570  -15.5590   -1.2260 H      10  IDS10       0.0000
    750  H        -26.3520  -25.1280   -2.8180 H      12  IDS12       0.2095
    751  H         -9.2300   -7.3800   -2.2130 H       6  IDS6        0.1281
    752  H        -24.1400  -24.9640   -3.5600 H      12  IDS12       0.2052
    753  H        -20.1270  -16.2340   -1.8820 H      10  IDS10       0.2052
    754  H        -21.4200  -17.1430   -1.9780 H      10  IDS10       0.2052
    755  H        -24.2920  -22.7770   -0.9260 H      11  SGN11       0.2052
    756  H        -25.5850  -23.3950   -0.2510 H      11  SGN11       0.2052
    757  H        -12.9270  -11.2370   -2.2450 H       8  IDS8        0.0523
    758  H        -13.0860  -12.6600   -3.2040 H       8  IDS8        0.0523
    759  H        -18.7910  -19.7480   -4.8490 H      10  IDS10       0.2130
    760  H        -16.5020  -17.0780   -0.0970 H       9  SGN9        0.0194
    761  H        -16.4310  -18.5340    0.8560 H       9  SGN9        0.0194
    762  H        -13.4880  -13.8840   -2.7880 H       8  IDS8        0.0194
    763  H        -11.8910  -13.2220   -2.5350 H       8  IDS8        0.0194
    764  H        -12.6380  -14.1990   -1.2940 H       8  IDS8        0.0194
    765  H          5.2510    7.4650    4.2920 H       1  SGN1        0.0194
    766  H          4.6340    7.0400    2.7130 H       1  SGN1        0.0194
    767  H          6.3520    7.2500    2.9520 H       1  SGN1        0.0194
    768  H         -6.6220   -8.2640   -2.9590 H       6  IDS6        0.2149
    769  H        -19.3630  -18.0100   -3.4560 H      10  IDS10       0.0000
    770  H        -23.9320  -21.7550   -6.0470 H      11  SGN11       0.0000
    771  H         -1.0550   -4.6570    0.8080 H       5  SGN5        0.0000
    772  H        -20.7380  -19.6270   -3.7520 H      10  IDS10       0.0523
    773  H        -20.0100  -18.0620   -3.4790 H      10  IDS10       0.0523
    774  H        -21.4590  -18.5150   -2.6130 H      10  IDS10       0.0523
    775  H        -15.2140  -13.3100   -0.3720 H       8  IDS8        0.0523
    776  H        -13.6480  -12.5400   -0.2910 H       8  IDS8        0.0523
    777  H        -13.8780  -13.9470   -1.3000 H       8  IDS8        0.0523
    778  H         -0.1360    1.1020    0.4600 H       4  IDS4        0.2052
    779  H         -1.4290    1.7560    1.1000 H       4  IDS4        0.2052
    780  H         -3.7590   -4.6700    1.7510 H       5  SGN5        0.0194
    781  H         -5.1860   -5.4630    2.3750 H       5  SGN5        0.0194
    782  H         -5.1860   -4.8140    0.7520 H       5  SGN5        0.0194
    783  H         -5.1860   -3.7330    2.1260 H       5  SGN5        0.0194
    784  H        -24.8470  -25.8250   -4.5350 H      12  IDS12       0.0580
    785  H        -10.5400  -13.5060   -1.5430 H       8  IDS8        0.2052
    786  H        -11.8330  -14.2280   -0.9820 H       8  IDS8        0.2052
    787  H        -12.6450  -13.7270   -2.6480 H       8  IDS8        0.0538
    788  H        -13.3970  -12.1920   -2.9790 H       8  IDS8        0.0538
    789  H        -19.7990  -18.3310   -0.7850 H      10  IDS10       0.0571
    790  H        -22.8470  -22.2230   -1.7280 H      11  SGN11       0.0000
    791  H        -11.7930   -6.8870   -3.0480 H       7  SGN7        0.2125
    792  H         -8.2650   -5.2590    1.7440 H       6  IDS6        0.0521
    793  H         -9.6780   -4.6200    0.9390 H       6  IDS6        0.0521
    794  H         -8.7290   -5.8730    0.1760 H       6  IDS6        0.0521
    795  H        -21.2020  -16.5660   -1.8080 H      10  IDS10       0.0252
    796  H        -21.8960  -18.1710   -2.0330 H      10  IDS10       0.0252
    797  H         -9.1750   -7.1020   -0.9000 H       6  IDS6        0.0615
    798  H         -5.5100   -6.7380    4.1640 H       5  SGN5        0.2090
    799  H         -2.4540   -4.8780    1.7840 H       5  SGN5        0.2052
    800  H         -3.7470   -4.3780    1.0180 H       5  SGN5        0.2052
    801  H        -24.9060  -21.6570   -3.4740 H      11  SGN11       0.0584
    802  H        -17.2280  -17.2600   -2.6090 H       9  SGN9        0.0194
    803  H        -16.5430  -17.1880   -1.0040 H       9  SGN9        0.0194
    804  H        -18.2460  -17.5160   -1.2120 H       9  SGN9        0.0194
    805  H          1.7270    5.8370    1.1330 H       2  IDS2        0.0654
    806  H          3.3770    6.3660    0.8740 H       2  IDS2        0.0654
    807  H        -14.2050  -15.9990   -4.0310 H       9  SGN9        0.1360
    808  H        -15.8850  -17.0680   -3.2140 H       9  SGN9        0.0194
    809  H        -17.4770  -17.6100   -3.6870 H       9  SGN9        0.0194
    810  H        -17.0820  -17.4310   -1.9950 H       9  SGN9        0.0194
    811  H         -5.6830   -0.6050    1.4680 H       4  IDS4        0.2153
    812  H         -1.1630    4.9650    1.3330 H       3  SGN3        0.0386
    813  H         -1.6070    3.3920    1.9750 H       3  SGN3        0.0386
    814  H        -24.5330  -21.7320   -5.9870 H      11  SGN11       0.0607
    815  H          1.5690    7.0800    3.0320 H       2  IDS2        0.0521
    816  H          1.2960    6.4480    1.4500 H       2  IDS2        0.0521
    817  H        -24.1650  -22.9170   -0.1270 H      11  SGN11       0.0000
    818  H          8.0570    7.6710    3.3240 H       1  SGN1        0.0444
    819  H        -25.0570  -23.4750   -3.7610 H      12  IDS12       0.0580
    820  H         -1.2990    0.8470    0.3440 H       4  IDS4        0.0586
    821  H          9.7940    7.6300    4.0570 H       1  SGN1        0.0000
    822  H        -12.4950   -7.7160    0.8780 H       7  SGN7        0.0336
    823  H          7.5410    9.9840    3.8100 H       1  SGN1        0.2532
    824  H          0.6120    5.4410    2.4130 H       3  SGN3        0.2122
@<TRIPOS>BOND
     1     1   119    2
     2     2   215    1
     3     3    93    1
     4     4    94    1
     5     5   501    1
     6     5   325    1
     7     6   502    1
     8     6   603    1
     9     7    19    1
    10     8    20    2
    11     9   127    1
    12     9   473    1
    13     9   347    1
    14     9   199    1
    15    11   387    2
    16    12   388    1
    17    12   604    1
    18    13   531    1
    19    14   532    1
    20    15   309    1
    21    16   311    1
    22    16   309    1
    23    17   413    1
    24    17   459    1
    25    18   414    1
    26    18   460    1
    27    19   371    1
    28    19   355    1
    29    19    63    1
    30    19   356    1
    31    20    64    1
    32    20   372    1
    33    21   261    1
    34    21   278    1
    35    22   277    1
    36    22   261    1
    37    23   251    1
    38    23   539    1
    39    23   167    1
    40    23   605    1
    41    24   252    1
    42    24   540    1
    43    24   168    1
    44    24   167    1
    45    25   501    1
    46    25   229    1
    47    25   351    1
    48    25   193    1
    49    26   352    1
    50    26   194    1
    51    26   606    1
    52    26   607    1
    53    27    93    1
    54    27    47    1
    55    27    37    1
    56    27   331    1
    57    28   332    1
    58    28   608    1
    59    28   609    1
    60    28   610    1
    61    29   533    1
    62    29   543    1
    63    30   544    1
    64    30   611    1
    65    31   315    1
    66    31   481    1
    67    31   483    1
    68    31   209    1
    69    32   484    1
    70    32   482    1
    71    32   210    1
    72    32   612    1
    73    33   471    1
    74    33   115    1
    75    34   472    1
    76    34   613    1
    77    35   507    1
    78    35   449    1
    79    35   179    1
    80    35   481    1
    81    36   180    1
    82    36   482    1
    83    36   614    1
    84    36   615    1
    85    37   235    1
    86    38   236    1
    87    38   616    1
    88    39   575    1
    89    40   576    1
    90    41   143    1
    91    42   617    1
    92    43   353    1
    93    44   354    1
    94    45   279    1
    95    45   251    1
    96    45   433    1
    97    45   105    1
    98    46   434    1
    99    46   618    1
   100    46   619    1
   101    46   620    1
   102    47   377    1
   103    48   378    1
   104    48   621    1
   105    49   101    1
   106    50   102    1
   107    51   339    1
   108    51   195    1
   109    52   340    1
   110    52   196    1
   111    53   215    1
   112    53   120    1
   113    54   587    1
   114    55   155    1
   115    56   156    1
   116    57   353    1
   117    57   413    1
   118    58   622    1
   119    58   623    1
   120    59   163    1
   121    59   570    1
   122    60   164    2
   123    61   505    1
   124    61    75    1
   125    61   547    2
   126    61   205    2
   127    62   506    2
   128    62   548    2
   129    62    76    1
   130    62   206    1
   131    63   356    1
   132    65   109    1
   133    66   110    1
   134    67   365    1
   135    68   366    1
   136    69   133    1
   137    69   107    1
   138    69   219    1
   139    69   257    1
   140    70   108    1
   141    70   220    2
   142    70   258    1
   143    71   549    1
   144    71   215    1
   145    71   465    1
   146    72   550    1
   147    72   466    1
   148    72   624    1
   149    73   163    1
   150    74   164    2
   151    75   422    1
   152    77   301    1
   153    77    83    1
   154    77   127    1
   155    77   113    1
   156    78   128    1
   157    78   114    1
   158    78   625    1
   159    78   626    1
   160    79   419    1
   161    80   420    1
   162    81   291    1
   163    81   341    1
   164    81   153    1
   165    81   197    1
   166    82   198    2
   167    82   154    2
   168    82   342    2
   169    83   323    1
   170    83   307    1
   171    83   457    1
   172    84   308    1
   173    84   458    1
   174    84   627    1
   175    84   628    1
   176    85   471    1
   177    86   472    1
   178    87   249    1
   179    88   629    1
   180    89   161    1
   181    89   117    1
   182    90   162    1
   183    90   630    1
   184    91   365    1
   185    92   366    1
   186    93   533    1
   187    93   531    1
   188    94   631    1
   189    94   632    1
   190    94   633    1
   191    95   553    1
   192    95   529    1
   193    95   187    1
   194    95   601    1
   195    96   188    1
   196    96   634    1
   197    96   635    1
   198    96   636    1
   199    97   527    1
   200    97   139    1
   201    98   637    1
   202    98   638    1
   203    99   593    1
   204    99   353    1
   205    99   571    1
   206    99   375    1
   207   100   376    1
   208   100   594    1
   209   100   572    1
   210   100   639    1
   211   101   501    1
   212   101   165    1
   213   101   333    1
   214   102   334    1
   215   102   640    1
   216   102   641    1
   217   103   559    1
   218   103   599    1
   219   103   129    1
   220   103   589    1
   221   104   642    1
   222   104   643    1
   223   104   644    1
   224   104   645    1
   225   105   301    1
   226   106   646    1
   227   106   647    1
   228   108   257    1
   229   109   117    1
   230   109   227    1
   231   109   221    1
   232   110   648    1
   233   110   649    1
   234   110   650    1
   235   111   395    1
   236   112   396    1
   237   115   463    2
   238   115   423    2
   239   115   569    1
   240   116   464    1
   241   116   424    2
   242   116   570    1
   243   117   349    1
   244   117   357    1
   245   118   358    1
   246   118   350    1
   247   118   651    1
   248   118   652    1
   249   119   271    1
   250   119   561    2
   251   119   431    1
   252   120   562    2
   253   120   432    1
   254   121   471    1
   255   121   245    1
   256   121   395    1
   257   121   137    1
   258   122   138    1
   259   122   653    1
   260   122   654    1
   261   122   655    1
   262   123   467    1
   263   124   656    1
   264   125   549    1
   265   126   550    1
   266   127   321    1
   267   128   322    1
   268   128   657    1
   269   129   231    1
   270   130   658    1
   271   130   659    1
   272   131   563    1
   273   131   169    2
   274   131   313    2
   275   131   503    1
   276   132   170    1
   277   132   314    1
   278   132   504    1
   279   132   564    1
   280   133   315    1
   281   133   517    1
   282   133   316    1
   283   134   518    1
   284   134   660    1
   285   134   661    1
   286   135   529    1
   287   136   662    1
   288   139   487    1
   289   139   389    1
   290   139   269    1
   291   140   390    1
   292   140   270    1
   293   140   663    1
   294   140   664    1
   295   141   387    1
   296   141   388    1
   297   142   388    1
   298   142   665    1
   299   143   559    1
   300   143   429    1
   301   143   265    1
   302   144   266    1
   303   144   560    1
   304   144   666    1
   305   144   667    1
   306   145   175    1
   307   145   575    1
   308   146   668    1
   309   146   669    1
   310   147   299    1
   311   147   233    1
   312   148   300    1
   313   148   670    1
   314   149   449    1
   315   149   317    1
   316   149   417    1
   317   149   150    1
   318   150   418    1
   319   150   671    1
   320   150   672    1
   321   151   299    1
   322   152   300    1
   323   155   245    1
   324   155   261    1
   325   155   381    1
   326   156   673    1
   327   156   674    1
   328   156   675    1
   329   157   285    1
   330   157   568    1
   331   158   567    1
   332   158   676    1
   333   159   585    1
   334   159   251    1
   335   160   586    1
   336   160   252    1
   337   161   549    1
   338   161   601    1
   339   161   183    1
   340   162   184    1
   341   162   602    1
   342   162   677    1
   343   163   385    1
   344   163   287    1
   345   163   288    1
   346   164   288    1
   347   164   386    1
   348   165   323    1
   349   166   678    1
   350   166   679    1
   351   168   539    1
   352   171   369    1
   353   172   370    1
   354   173   397    1
   355   173   174    1
   356   174   398    1
   357   175   345    1
   358   175   525    1
   359   175   207    1
   360   176   208    1
   361   176   680    1
   362   176   681    1
   363   176   682    1
   364   177   459    1
   365   178   683    1
   366   181   315    1
   367   182   316    1
   368   185   229    1
   369   185   545    1
   370   186   230    1
   371   186   546    1
   372   189   351    1
   373   190   352    1
   374   191   397    1
   375   191   192    1
   376   192   398    1
   377   199   200    1
   378   200   244    1
   379   201   509    1
   380   202   510    1
   381   203   527    1
   382   204   528    1
   383   211   249    1
   384   211   225    1
   385   211   361    1
   386   211   565    1
   387   212   362    1
   388   212   226    1
   389   212   566    1
   390   212   684    1
   391   213   479    1
   392   213   239    2
   393   213   329    2
   394   213   421    1
   395   214   480    1
   396   214   422    1
   397   214   330    1
   398   214   240    1
   399   215   587    1
   400   215   343    1
   401   216   588    2
   402   216   344    2
   403   217   525    1
   404   218   526    1
   405   222   685    1
   406   223   405    1
   407   224   406    1
   408   224   451    1
   409   225   429    1
   410   226   686    1
   411   227   405    1
   412   228   406    1
   413   228   405    1
   414   229   509    1
   415   229   263    1
   416   230   264    1
   417   230   687    1
   418   230   688    1
   419   231   429    1
   420   231   299    1
   421   231   499    1
   422   232   500    1
   423   232   689    1
   424   232   690    1
   425   232   691    1
   426   233   327    1
   427   233   303    2
   428   233   241    2
   429   234   327    1
   430   234   328    2
   431   234   242    1
   432   235   527    1
   433   235   419    1
   434   235   367    1
   435   236   368    1
   436   236   692    1
   437   236   693    1
   438   237   337    1
   439   237   238    1
   440   243   407    2
   441   244   408    1
   442   245   445    1
   443   245   537    1
   444   246   446    1
   445   246   538    1
   446   246   694    1
   447   246   695    1
   448   247   309    1
   449   247   310    1
   450   248   310    1
   451   249   553    1
   452   249   271    1
   453   250   696    1
   454   250   697    1
   455   250   698    1
   456   250   699    1
   457   251   289    1
   458   252   290    1
   459   252   700    1
   460   253   551    1
   461   254   552    1
   462   255   377    1
   463   256   378    1
   464   258   330    1
   465   259   593    1
   466   260   594    1
   467   261   277    1
   468   262   278    1
   469   262   701    1
   470   262   702    1
   471   262   703    1
   472   265   583    1
   473   266   584    1
   474   267   593    1
   475   267   397    1
   476   267   595    1
   477   267   268    1
   478   268   596    1
   479   268   704    1
   480   272   705    1
   481   272   706    1
   482   273   553    1
   483   274   554    1
   484   275   279    1
   485   276   707    1
   486   279   383    1
   487   279   297    1
   488   280   384    1
   489   280   708    1
   490   280   709    1
   491   280   710    1
   492   281   501    1
   493   282   711    1
   494   283   397    1
   495   285   459    1
   496   285   567    1
   497   285   286    1
   498   286   568    1
   499   286   712    1
   500   286   713    1
   501   287   464    1
   502   291   559    1
   503   291   427    1
   504   292   428    1
   505   292   560    1
   506   292   714    1
   507   293   407    2
   508   294   408    2
   509   295   429    1
   510   296   430    1
   511   297   453    1
   512   298   454    1
   513   298   715    1
   514   299   319    1
   515   300   320    1
   516   300   716    1
   517   301   523    1
   518   301   447    1
   519   302   717    1
   520   302   718    1
   521   302   719    1
   522   302   720    1
   523   305   353    1
   524   305   365    1
   525   305   495    1
   526   305   335    1
   527   306   336    1
   528   306   721    1
   529   306   722    1
   530   306   723    1
   531   307   597    1
   532   308   598    1
   533   309   531    1
   534   309   311    1
   535   309   310    1
   536   310   312    1
   537   310   532    1
   538   312   314    1
   539   315   345    1
   540   316   724    1
   541   316   725    1
   542   317   418    1
   543   318   726    1
   544   318   727    1
   545   323   467    1
   546   323   435    1
   547   324   436    1
   548   324   728    1
   549   324   729    1
   550   324   730    1
   551   325   521    2
   552   325   393    2
   553   325   579    1
   554   326   522    2
   555   326   394    2
   556   326   580    2
   557   333   509    1
   558   334   510    1
   559   337   515    1
   560   337   557    1
   561   337   455    1
   562   338   558    2
   563   339   549    1
   564   339   349    1
   565   339   373    1
   566   340   374    1
   567   340   731    1
   568   340   732    1
   569   345   409    1
   570   345   489    1
   571   346   733    1
   572   346   734    1
   573   346   735    1
   574   346   736    1
   575   347   348    1
   576   349   469    1
   577   349   461    1
   578   350   470    1
   579   350   737    1
   580   350   738    1
   581   354   739    1
   582   354   740    1
   583   354   741    1
   584   355   504    1
   585   359   369    1
   586   360   742    1
   587   361   529    1
   588   362   530    1
   589   363   475    1
   590   364   743    1
   591   365   371    1
   592   366   372    1
   593   366   744    1
   594   369   467    1
   595   369   515    1
   596   370   516    1
   597   370   745    1
   598   370   746    1
   599   377   425    1
   600   377   459    1
   601   378   747    1
   602   378   748    1
   603   379   399    1
   604   380   749    1
   605   381   575    1
   606   382   576    1
   607   382   750    1
   608   383   585    1
   609   383   477    1
   610   383   493    1
   611   384   478    1
   612   384   494    1
   613   384   586    1
   614   385   551    1
   615   386   552    1
   616   387   529    1
   617   388   530    1
   618   389   449    1
   619   390   450    1
   620   391   509    1
   621   391   439    1
   622   391   581    1
   623   391   510    1
   624   392   582    1
   625   392   440    1
   626   392   581    1
   627   392   751    1
   628   396   752    1
   629   399   507    1
   630   400   753    1
   631   400   754    1
   632   401   487    1
   633   402   488    1
   634   403   553    1
   635   403   591    1
   636   404   592    1
   637   404   554    1
   638   405   437    1
   639   405   451    1
   640   406   452    1
   641   406   438    1
   642   407   477    1
   643   407   519    1
   644   408   520    2
   645   408   478    1
   646   409   555    1
   647   410   755    1
   648   410   756    1
   649   411   559    1
   650   412   560    1
   651   413   485    1
   652   413   577    1
   653   414   578    1
   654   414   757    1
   655   414   758    1
   656   415   507    1
   657   416   508    1
   658   417   759    1
   659   419   505    1
   660   419   511    1
   661   420   512    1
   662   420   760    1
   663   420   761    1
   664   425   485    1
   665   425   475    1
   666   425   513    1
   667   426   514    1
   668   426   762    1
   669   426   763    1
   670   426   764    1
   671   430   765    1
   672   430   766    1
   673   430   767    1
   674   437   438    1
   675   439   582    1
   676   440   768    1
   677   441   449    1
   678   442   769    1
   679   443   551    1
   680   444   770    1
   681   445   446    1
   682   448   771    1
   683   450   772    1
   684   450   773    1
   685   450   774    1
   686   455   456    1
   687   460   775    1
   688   460   776    1
   689   460   777    1
   690   461   585    1
   691   462   778    1
   692   462   779    1
   693   467   523    1
   694   468   780    1
   695   468   781    1
   696   468   782    1
   697   468   783    1
   698   471   575    1
   699   472   576    1
   700   472   784    1
   701   473   474    1
   702   476   785    1
   703   476   786    1
   704   479   487    1
   705   480   488    1
   706   483   525    1
   707   484   526    1
   708   485   563    1
   709   485   497    1
   710   486   564    1
   711   486   498    1
   712   486   787    1
   713   486   788    1
   714   487   507    1
   715   488   508    1
   716   488   789    1
   717   490   790    1
   718   491   585    1
   719   492   586    1
   720   495   545    1
   721   496   546    1
   722   496   791    1
   723   502   792    1
   724   502   793    1
   725   502   794    1
   726   508   795    1
   727   508   796    1
   728   510   797    1
   729   516   798    1
   730   524   799    1
   731   524   800    1
   732   525   551    1
   733   526   552    1
   734   526   801    1
   735   527   533    1
   736   528   802    1
   737   528   803    1
   738   528   804    1
   739   530   805    1
   740   530   806    1
   741   532   807    1
   742   533   535    1
   743   534   536    1
   744   534   808    1
   745   534   809    1
   746   534   810    1
   747   540   811    1
   748   541   545    1
   749   542   546    1
   750   545   593    1
   751   546   594    1
   752   550   812    1
   753   550   813    1
   754   552   814    1
   755   554   815    1
   756   554   816    1
   757   556   817    1
   758   560   818    1
   759   571   573    1
   760   572   574    1
   761   576   819    1
   762   586   820    1
   763   590   821    1
   764   594   822    1
   765   599   600    1
   766   600   823    1
   767   602   824    1
