REMARK  0 active torsions:
REMARK  status: ('A' for Active; 'I' for Inactive)
REMARK       I    between atoms: O6_1  and  C6_54 
REMARK       I    between atoms: C4_2  and  O4_49 
REMARK       I    between atoms: O2_3  and  C2_61 
REMARK       I    between atoms: N2_7  and  C2_44 
REMARK       I    between atoms: N2_7  and  C7_35 
REMARK       I    between atoms: C5_8  and  C6_54 
REMARK       I    between atoms: C3_10  and  O3_74 
REMARK       I    between atoms: O1_11  and  C1_41 
REMARK       I    between atoms: C4_13  and  O4_45 
REMARK       I    between atoms: C1_14  and  O4_45 
REMARK       I    between atoms: C1_15  and  O3_24 
REMARK       I    between atoms: C7_16  and  N2_43 
REMARK       I    between atoms: C1_18  and  O3_30 
REMARK       I    between atoms: C4_20  and  O4_73 
REMARK       I    between atoms: C6_21  and  C5_60 
REMARK       I    between atoms: C6_21  and  O6_39 
REMARK       I    between atoms: C3_22  and  O3_78 
REMARK       I    between atoms: C3_23  and  O3_62 
REMARK       I    between atoms: O3_24  and  C3_29 
REMARK       I    between atoms: C5_25  and  C6_42 
REMARK       I    between atoms: C3_27  and  O3_51 
REMARK       I    between atoms: O3_30  and  C3_31 
REMARK       I    between atoms: O4_32  and  C4_34 
REMARK       I    between atoms: O2_33  and  C2_71 
REMARK       I    between atoms: C5_37  and  C6_46 
REMARK       I    between atoms: N2_38  and  C2_75 
REMARK       I    between atoms: N2_38  and  C7_52 
REMARK       I    between atoms: C5_40  and  C6_66 
REMARK       I    between atoms: C6_42  and  O6B_63 
REMARK       I    between atoms: N2_43  and  C2_48 
REMARK       I    between atoms: C6_46  and  O6B_67 
REMARK       I    between atoms: C4_47  and  O4_50 
REMARK       I    between atoms: O4_49  and  C1_55 
REMARK       I    between atoms: C6_56  and  C5_72 
REMARK       I    between atoms: C6_56  and  O6B_58 
REMARK       I    between atoms: O3_62  and  C1_69 
REMARK       I    between atoms: C6_66  and  O6_77 
REMARK       I    between atoms: C2_76  and  O2_79 
ROOT
ATOM      1  O6  NAG d2002      10.094  -6.495  32.134  0.00  0.00    -0.398 OA
ATOM      2  O7  NAG d2002       7.047 -12.250  34.360  0.00  0.00    -0.274 OA
ATOM      3  C5  NAG d2002       9.530  -8.516  30.803  0.00  0.00     0.179 C 
ATOM      4  C3  NAG d2002       7.511  -9.982  31.424  0.00  0.00     0.183 C 
ATOM      5  N2  NAG d2002       7.864 -12.335  32.155  0.00  0.00    -0.349 N 
ATOM      6  C4  NAG d2002       8.098  -8.520  31.484  0.00  0.00     0.180 C 
ATOM      7  O4  NAG d2002       7.260  -7.578  30.771  0.00  0.00    -0.390 OA
ATOM      8  C7  NAG d2002       7.197 -12.844  33.290  0.00  0.00     0.214 C 
ATOM      9  C6  NAG d2002      10.188  -7.130  30.842  0.00  0.00     0.198 C 
ATOM     10  C1  NAG d2002       9.871 -10.885  31.481  0.00  0.00     0.286 C 
ATOM     11  O3  NAG d2002       6.133 -10.059  32.019  0.00  0.00    -0.348 OA
ATOM     12  C8  NAG d2002       6.650 -14.218  33.062  0.00  0.00     0.117 C 
ATOM     13  O5  NAG d2002      10.432  -9.471  31.498  0.00  0.00    -0.349 OA
ATOM     14  C2  NAG d2002       8.458 -10.940  32.182  0.00  0.00     0.171 C 
ATOM     15  H   NAG d2002      10.525  -5.627  32.099  0.00  0.00     0.209 HD
ATOM     16  H   NAG d2002       7.944 -12.887  31.344  0.00  0.00     0.163 HD
ATOM     17  H   NAG d2002       7.207  -7.835  29.837  0.00  0.00     0.210 HD
ATOM     18  C4  BDP d2001      12.176 -11.942  31.740  0.00  0.00     0.195 C 
ATOM     19  O2  BDP d2001      15.575 -10.715  33.054  0.00  0.00    -0.388 OA
ATOM     20  O6A BDP d2001      11.997 -15.560  30.926  0.00  0.00    -0.648 OA
ATOM     21  C1  BDP d2001      14.823 -13.005  32.453  0.00  0.00     0.292 C 
ATOM     22  C3  BDP d2001      13.169 -11.142  32.664  0.00  0.00     0.183 C 
ATOM     23  C5  BDP d2001      12.367 -13.562  31.770  0.00  0.00     0.253 C 
ATOM     24  C6  BDP d2001      11.630 -14.355  30.949  0.00  0.00     0.172 C 
ATOM     25  O4  BDP d2001      10.768 -11.753  32.147  0.00  0.00    -0.348 OA
ATOM     26  O3  BDP d2001      12.911  -9.722  32.507  0.00  0.00    -0.390 OA
ATOM     27  C2  BDP d2001      14.636 -11.459  32.225  0.00  0.00     0.204 C 
ATOM     28  O5  BDP d2001      13.881 -13.770  31.641  0.00  0.00    -0.340 OA
ATOM     29  O6B BDP d2001      10.715 -13.771  30.290  0.00  0.00    -0.774 OA
ATOM     30  H   BDP d2001      16.482 -10.917  32.776  0.00  0.00     0.210 HD
ATOM     31  H   BDP d2001      13.035  -9.472  31.578  0.00  0.00     0.210 HD
ATOM     32  H   BDP d2001      10.557 -12.856  30.417  0.00  0.00     0.167 HD
ATOM     33  C4  BDP d2005      -2.030  -7.153  20.366  0.00  0.00     0.197 C 
ATOM     34  O6A BDP d2005      -2.413 -10.054  20.066  0.00  0.00    -0.648 OA
ATOM     35  C1  BDP d2005      -0.110  -7.440  22.615  0.00  0.00     0.293 C 
ATOM     36  C3  BDP d2005      -0.705  -6.525  20.514  0.00  0.00     0.224 C 
ATOM     37  O4  BDP d2005      -2.617  -7.244  19.466  0.00  0.00    -0.292 OA
ATOM     38  O2  BDP d2005       1.318  -5.791  21.734  0.00  0.00    -0.388 OA
ATOM     39  C6  BDP d2005      -2.784  -9.373  21.081  0.00  0.00     0.177 C 
ATOM     40  O6B BDP d2005      -3.642  -9.638  21.986  0.00  0.00    -0.774 OA
ATOM     41  O5  BDP d2005      -0.946  -8.523  22.189  0.00  0.00    -0.335 OA
ATOM     42  C2  BDP d2005       0.507  -6.902  21.379  0.00  0.00     0.209 C 
ATOM     43  C5  BDP d2005      -2.096  -8.135  21.289  0.00  0.00     0.294 C 
ATOM     44  O3  BDP d2005      -0.193  -6.084  19.210  0.00  0.00    -0.385 OA
ATOM     45  H   BDP d2005       2.062  -6.094  22.277  0.00  0.00     0.210 HD
ATOM     46  H   BDP d2005      -3.801  -9.023  22.675  0.00  0.00     0.167 HD
ATOM     47  H   BDP d2005       0.132  -6.852  18.714  0.00  0.00     0.210 HD
ATOM     48  O5  BDP d2003       5.394  -9.035  30.142  0.00  0.00    -0.340 OA
ATOM     49  C3  BDP d2003       2.932 -10.545  29.945  0.00  0.00     0.183 C 
ATOM     50  C4  BDP d2003       3.137  -9.160  29.197  0.00  0.00     0.195 C 
ATOM     51  C5  BDP d2003       4.653  -8.801  28.858  0.00  0.00     0.253 C 
ATOM     52  C6  BDP d2003       4.950  -7.640  28.245  0.00  0.00     0.172 C 
ATOM     53  O4  BDP d2003       2.656  -8.869  27.821  0.00  0.00    -0.348 OA
ATOM     54  O6A BDP d2003       5.268  -7.773  27.043  0.00  0.00    -0.648 OA
ATOM     55  O6B BDP d2003       4.827  -6.597  28.958  0.00  0.00    -0.774 OA
ATOM     56  C1  BDP d2003       5.207 -10.217  30.946  0.00  0.00     0.292 C 
ATOM     57  O3  BDP d2003       1.532 -10.750  30.216  0.00  0.00    -0.390 OA
ATOM     58  C2  BDP d2003       3.694 -10.401  31.332  0.00  0.00     0.204 C 
ATOM     59  O2  BDP d2003       3.569 -11.609  32.120  0.00  0.00    -0.388 OA
ATOM     60  H   BDP d2003       4.577  -6.671  29.858  0.00  0.00     0.167 HD
ATOM     61  H   BDP d2003       1.194 -10.013  30.749  0.00  0.00     0.210 HD
ATOM     62  H   BDP d2003       3.923 -12.360  31.619  0.00  0.00     0.210 HD
ATOM     63  N2  NAG d2000      18.311 -13.409  34.092  0.00  0.00    -0.349 N 
ATOM     64  O1  NAG d2000      19.962 -15.807  34.060  0.00  0.00    -0.369 OA
ATOM     65  O7  NAG d2000      18.616 -11.659  32.530  0.00  0.00    -0.274 OA
ATOM     66  C4  NAG d2000      16.428 -15.873  31.714  0.00  0.00     0.180 C 
ATOM     67  O3  NAG d2000      16.118 -13.448  32.110  0.00  0.00    -0.348 OA
ATOM     68  C3  NAG d2000      16.593 -14.687  32.737  0.00  0.00     0.183 C 
ATOM     69  C7  NAG d2000      18.543 -12.071  33.705  0.00  0.00     0.214 C 
ATOM     70  C8  NAG d2000      18.689 -11.146  34.888  0.00  0.00     0.117 C 
ATOM     71  C5  NAG d2000      16.955 -17.212  32.384  0.00  0.00     0.179 C 
ATOM     72  C1  NAG d2000      18.584 -15.887  33.735  0.00  0.00     0.282 C 
ATOM     73  C2  NAG d2000      18.112 -14.542  33.092  0.00  0.00     0.171 C 
ATOM     74  O5  NAG d2000      18.393 -17.056  32.775  0.00  0.00    -0.349 OA
ATOM     75  C6  NAG d2000      16.849 -18.434  31.428  0.00  0.00     0.198 C 
ATOM     76  O4  NAG d2000      15.028 -16.071  31.361  0.00  0.00    -0.390 OA
ATOM     77  O6  NAG d2000      16.331 -19.635  32.074  0.00  0.00    -0.398 OA
ATOM     78  H   NAG d2000      18.276 -13.620  35.053  0.00  0.00     0.163 HD
ATOM     79  H   NAG d2000      20.108 -15.068  34.671  0.00  0.00     0.212 HD
ATOM     80  H   NAG d2000      14.521 -16.289  32.159  0.00  0.00     0.210 HD
ATOM     81  H   NAG d2000      16.934 -19.906  32.784  0.00  0.00     0.209 HD
ATOM     82  C8  NAG d2004       2.150  -4.531  26.730  0.00  0.00     0.117 C 
ATOM     83  C1  NAG d2004       1.452  -8.971  27.095  0.00  0.00     0.286 C 
ATOM     84  C7  NAG d2004       1.625  -5.944  26.877  0.00  0.00     0.214 C 
ATOM     85  C6  NAG d2004      -0.400 -12.106  25.926  0.00  0.00     0.198 C 
ATOM     86  O7  NAG d2004       0.837  -6.245  27.796  0.00  0.00    -0.274 OA
ATOM     87  O3  NAG d2004       0.926  -7.864  23.467  0.00  0.00    -0.348 OA
ATOM     88  C3  NAG d2004       0.573  -8.457  24.774  0.00  0.00     0.183 C 
ATOM     89  O4  NAG d2004      -0.935 -10.213  23.732  0.00  0.00    -0.390 OA
ATOM     90  C4  NAG d2004       0.238  -9.999  24.605  0.00  0.00     0.180 C 
ATOM     91  O6  NAG d2004      -0.337 -12.608  24.573  0.00  0.00    -0.398 OA
ATOM     92  N2  NAG d2004       2.134  -6.830  25.859  0.00  0.00    -0.349 N 
ATOM     93  C2  NAG d2004       1.789  -8.336  25.708  0.00  0.00     0.171 C 
ATOM     94  O5  NAG d2004       1.112 -10.420  26.905  0.00  0.00    -0.349 OA
ATOM     95  C5  NAG d2004      -0.092 -10.601  26.041  0.00  0.00     0.179 C 
ATOM     96  H   NAG d2004      -0.752  -9.852  22.851  0.00  0.00     0.210 HD
ATOM     97  H   NAG d2004      -1.005 -12.161  24.031  0.00  0.00     0.209 HD
ATOM     98  H   NAG d2004       2.756  -6.445  25.201  0.00  0.00     0.163 HD
ENDROOT
TORSDOF 35
