@<TRIPOS>MOLECULE
1LOH_LIGAND_1.pdb
 142 147 0 0 0
SMALL
GASTEIGER

@<TRIPOS>ATOM
      1  O6        10.0940   -6.4950   32.1340 O.3   2002  NAG2002    -0.3924
      2  C4        12.1760  -11.9420   31.7400 C.3   2001  BDP2001     0.1266
      3  O2        15.5750  -10.7150   33.0540 O.3   2001  BDP2001    -0.3841
      4  O7         7.0470  -12.2500   34.3600 O.2   2002  NAG2002    -0.2761
      5  C4        -2.0300   -7.1530   20.3660 C.2   2005  BDP2005     0.2037
      6  O5         5.3940   -9.0350   30.1420 O.3   2003  BDP2003    -0.3315
      7  N2        18.3110  -13.4090   34.0920 N.am  2000  NAG2000    -0.3053
      8  C5         9.5300   -8.5160   30.8030 C.3   2002  NAG2002     0.1130
      9  C8         2.1500   -4.5310   26.7300 C.3   2004  NAG2004     0.0122
     10  C3         2.9320  -10.5450   29.9450 C.3   2003  BDP2003     0.1149
     11  O1        19.9620  -15.8070   34.0600 O.3   2000  NAG2000    -0.3654
     12  O6A       11.9970  -15.5600   30.9260 O.2   2001  BDP2001    -0.2480
     13  C4         3.1370   -9.1600   29.1970 C.3   2003  BDP2003     0.1266
     14  C1         1.4520   -8.9710   27.0950 C.3   2004  NAG2004     0.1808
     15  C1        14.8230  -13.0050   32.4530 C.3   2001  BDP2001     0.1890
     16  C7         1.6250   -5.9440   26.8770 C.2   2004  NAG2004     0.2104
     17  O6A       -2.4130  -10.0540   20.0660 O.2   2005  BDP2005    -0.2476
     18  C1        -0.1100   -7.4400   22.6150 C.3   2005  BDP2005     0.1897
     19  O7        18.6160  -11.6590   32.5300 O.2   2000  NAG2000    -0.2761
     20  C4        16.4280  -15.8730   31.7140 C.3   2000  NAG2000     0.1116
     21  C6        -0.4000  -12.1060   25.9260 C.3   2004  NAG2004     0.0730
     22  C3        -0.7050   -6.5250   20.5140 C.3   2005  BDP2005     0.1466
     23  C3         7.5110   -9.9820   31.4240 C.3   2002  NAG2002     0.1130
     24  O3        16.1180  -13.4480   32.1100 O.3   2000  NAG2000    -0.3408
     25  C5         4.6530   -8.8010   28.8580 C.3   2003  BDP2003     0.1863
     26  O4        -2.6170   -7.2440   19.4660 O.2   2005  BDP2005    -0.2912
     27  C3        13.1690  -11.1420   32.6640 C.3   2001  BDP2001     0.1149
     28  O7         0.8370   -6.2450   27.7960 O.2   2004  NAG2004    -0.2761
     29  C3        16.5930  -14.6870   32.7370 C.3   2000  NAG2000     0.1130
     30  O3         0.9260   -7.8640   23.4670 O.3   2004  NAG2004    -0.3407
     31  C3         0.5730   -8.4570   24.7740 C.3   2004  NAG2004     0.1130
     32  O4        -0.9350  -10.2130   23.7320 O.3   2004  NAG2004    -0.3865
     33  O2         1.3180   -5.7910   21.7340 O.3   2005  BDP2005    -0.3837
     34  C4         0.2380   -9.9990   24.6050 C.3   2004  NAG2004     0.1116
     35  C7        18.5430  -12.0710   33.7050 C.2   2000  NAG2000     0.2104
     36  C8        18.6890  -11.1460   34.8880 C.3   2000  NAG2000     0.0122
     37  C5        12.3670  -13.5620   31.7700 C.3   2001  BDP2001     0.1863
     38  N2         7.8640  -12.3350   32.1550 N.am  2002  NAG2002    -0.3053
     39  O6        -0.3370  -12.6080   24.5730 O.3   2004  NAG2004    -0.3924
     40  C5        16.9550  -17.2120   32.3840 C.3   2000  NAG2000     0.1130
     41  C1        18.5840  -15.8870   33.7350 C.3   2000  NAG2000     0.1776
     42  C6         4.9500   -7.6400   28.2450 C.2   2003  BDP2003     0.3367
     43  N2         2.1340   -6.8300   25.8590 N.am  2004  NAG2004    -0.3053
     44  C2        18.1120  -14.5420   33.0920 C.3   2000  NAG2000     0.1024
     45  O4         2.6560   -8.8690   27.8210 O.3   2003  BDP2003    -0.3403
     46  C6        11.6300  -14.3550   30.9490 C.2   2001  BDP2001     0.3367
     47  C4         8.0980   -8.5200   31.4840 C.3   2002  NAG2002     0.1116
     48  C2         1.7890   -8.3360   25.7080 C.3   2004  NAG2004     0.1026
     49  O4        10.7680  -11.7530   32.1470 O.3   2001  BDP2001    -0.3403
     50  O4         7.2600   -7.5780   30.7710 O.3   2002  NAG2002    -0.3865
     51  O3        12.9110   -9.7220   32.5070 O.3   2001  BDP2001    -0.3864
     52  C7         7.1970  -12.8440   33.2900 C.2   2002  NAG2002     0.2104
     53  O6A        5.2680   -7.7730   27.0430 O.2   2003  BDP2003    -0.2480
     54  C6        10.1880   -7.1300   30.8420 C.3   2002  NAG2002     0.0730
     55  C1         9.8710  -10.8850   31.4810 C.3   2002  NAG2002     0.1808
     56  C6        -2.7840   -9.3730   21.0810 C.2   2005  BDP2005     0.3416
     57  O5        18.3930  -17.0560   32.7750 O.3   2000  NAG2000    -0.3414
     58  O6B       -3.6420   -9.6380   21.9860 O.3   2005  BDP2005    -0.4785
     59  O5         1.1120  -10.4200   26.9050 O.3   2004  NAG2004    -0.3412
     60  C5        -0.0920  -10.6010   26.0410 C.3   2004  NAG2004     0.1130
     61  C2        14.6360  -11.4590   32.2250 C.3   2001  BDP2001     0.1342
     62  O3         6.1330  -10.0590   32.0190 O.3   2002  NAG2002    -0.3408
     63  O6B        4.8270   -6.5970   28.9580 O.3   2003  BDP2003    -0.4788
     64  O5        13.8810  -13.7700   31.6410 O.3   2001  BDP2001    -0.3315
     65  C8         6.6500  -14.2180   33.0620 C.3   2002  NAG2002     0.0122
     66  C6        16.8490  -18.4340   31.4280 C.3   2000  NAG2000     0.0730
     67  O6B       10.7150  -13.7710   30.2900 O.3   2001  BDP2001    -0.4788
     68  O5        10.4320   -9.4710   31.4980 O.3   2002  NAG2002    -0.3412
     69  C1         5.2070  -10.2170   30.9460 C.3   2003  BDP2003     0.1890
     70  O5        -0.9460   -8.5230   22.1890 O.3   2005  BDP2005    -0.3265
     71  C2         0.5070   -6.9020   21.3790 C.3   2005  BDP2005     0.1386
     72  C5        -2.0960   -8.1350   21.2890 C.3   2005  BDP2005     0.2177
     73  O4        15.0280  -16.0710   31.3610 O.3   2000  NAG2000    -0.3865
     74  O3         1.5320  -10.7500   30.2160 O.3   2003  BDP2003    -0.3864
     75  C2         8.4580  -10.9400   32.1820 C.3   2002  NAG2002     0.1026
     76  C2         3.6940  -10.4010   31.3320 C.3   2003  BDP2003     0.1342
     77  O6        16.3310  -19.6350   32.0740 O.3   2000  NAG2000    -0.3924
     78  O3        -0.1930   -6.0840   19.2100 O.3   2005  BDP2005    -0.3814
     79  O2         3.5690  -11.6090   32.1200 O.3   2003  BDP2003    -0.3841
     80 H          10.5246   -5.6265   32.0995 H     2002  NAG2002     0.2095
     81 H          12.4018  -11.5490   30.7707 H     2001  BDP2001     0.0655
     82 H          16.4821  -10.9167   32.7758 H     2001  BDP2001     0.2101
     83 H          18.2761  -13.6200   35.0530 H     2000  NAG2000     0.1492
     84 H           9.3833   -8.8014   29.7823 H     2002  NAG2002     0.0647
     85 H           2.8069   -4.4805   25.8869 H     2004  NAG2004     0.0322
     86 H           2.6839   -4.2550   27.6152 H     2004  NAG2004     0.0322
     87 H           1.3300   -3.8592   26.5840 H     2004  NAG2004     0.0322
     88 H           3.2938  -11.3628   29.3574 H     2003  BDP2003     0.0648
     89 H          20.1076  -15.0682   34.6714 H     2000  NAG2000     0.2125
     90 H           2.5743   -8.6499   29.9507 H     2003  BDP2003     0.0655
     91 H           0.6275   -8.4949   27.5833 H     2004  NAG2004     0.0930
     92 H          14.6529  -13.1647   33.4972 H     2001  BDP2001     0.0938
     93 H          -0.6955   -6.7258   23.1554 H     2005  BDP2005     0.0938
     94 H          16.9848  -15.6324   30.8325 H     2000  NAG2000     0.0647
     95 H          -1.3853  -12.2795   26.3055 H     2004  NAG2004     0.0584
     96 H           0.3497  -12.6232   26.4875 H     2004  NAG2004     0.0584
     97 H          -1.1216   -5.8767   21.2563 H     2005  BDP2005     0.0702
     98 H           7.4352  -10.2672   30.3955 H     2002  NAG2002     0.0644
     99 H           4.9637   -9.4336   28.0529 H     2003  BDP2003     0.0742
    100 H          13.0328  -11.4225   33.6876 H     2001  BDP2001     0.0648
    101 H          16.0278  -14.8789   33.6250 H     2000  NAG2000     0.0644
    102 H          -0.2780   -7.9456   25.1729 H     2004  NAG2004     0.0644
    103 H          -0.7522   -9.8518   22.8505 H     2004  NAG2004     0.2100
    104 H           2.0623   -6.0944   22.2770 H     2005  BDP2005     0.2101
    105 H           1.0833  -10.4790   24.1578 H     2004  NAG2004     0.0647
    106 H          18.5928  -11.7075   35.7938 H     2000  NAG2000     0.0322
    107 H          17.9267  -10.3960   34.8506 H     2000  NAG2000     0.0322
    108 H          19.6510  -10.6785   34.8586 H     2000  NAG2000     0.0322
    109 H          11.9424  -13.9167   32.6859 H     2001  BDP2001     0.0742
    110 H           7.9438  -12.8870   31.3437 H     2002  NAG2002     0.1492
    111 H          -1.0053  -12.1606   24.0307 H     2004  NAG2004     0.2095
    112 H          16.3379  -17.3906   33.2397 H     2000  NAG2000     0.0647
    113 H          17.9947  -16.0491   34.6132 H     2000  NAG2000     0.0928
    114 H           2.7564   -6.4449   25.2005 H     2004  NAG2004     0.1492
    115 H          18.6759  -14.3222   32.2096 H     2000  NAG2000     0.0575
    116 H           8.1492   -8.2262   32.5116 H     2002  NAG2002     0.0647
    117 H           2.6310   -8.8568   25.3022 H     2004  NAG2004     0.0575
    118 H           7.2066   -7.8351   29.8372 H     2002  NAG2002     0.2100
    119 H          13.0354   -9.4715   31.5782 H     2001  BDP2001     0.2100
    120 H          11.2223   -7.2368   30.5895 H     2002  NAG2002     0.0584
    121 H           9.6669   -6.5097   30.1430 H     2002  NAG2002     0.0584
    122 H           9.7529  -11.1939   30.4634 H     2002  NAG2002     0.0930
    123 H          -3.8015   -9.0231   22.6748 H     2005  BDP2005     0.2951
    124 H          -0.9423  -10.1021   26.4570 H     2004  NAG2004     0.0647
    125 H          14.8150  -11.1837   31.2066 H     2001  BDP2001     0.0671
    126 H           4.5771   -6.6715   29.8580 H     2003  BDP2003     0.2951
    127 H           6.1561  -14.5569   33.9486 H     2002  NAG2002     0.0322
    128 H           7.4512  -14.8857   32.8227 H     2002  NAG2002     0.0322
    129 H           5.9516  -14.1939   32.2517 H     2002  NAG2002     0.0322
    130 H          17.8244  -18.6496   31.0445 H     2000  NAG2000     0.0584
    131 H          16.1582  -18.1697   30.6548 H     2000  NAG2000     0.0584
    132 H          10.5571  -12.8562   30.4172 H     2001  BDP2001     0.2951
    133 H           5.4149  -11.1401   30.4465 H     2003  BDP2003     0.0938
    134 H           1.1498   -7.5755   20.8516 H     2005  BDP2005     0.0675
    135 H          -2.7208   -7.3880   21.7323 H     2005  BDP2005     0.0796
    136 H          14.5212  -16.2893   32.1587 H     2000  NAG2000     0.2100
    137 H           1.1945  -10.0130   30.7487 H     2003  BDP2003     0.2100
    138 H           8.5754  -10.6546   33.2065 H     2002  NAG2002     0.0575
    139 H           3.2966   -9.5911   31.9074 H     2003  BDP2003     0.0671
    140 H          16.9339  -19.9058   32.7840 H     2000  NAG2000     0.2095
    141 H           0.1320   -6.8516   18.7138 H     2005  BDP2005     0.2105
    142 H           3.9234  -12.3601   31.6188 H     2003  BDP2003     0.2101
@<TRIPOS>BOND
     1     1    54    1
     2     2    27    1
     3     2    37    1
     4     2    49    1
     5     3    61    1
     6     4    52    2
     7     5    22    1
     8     5    72    1
     9     5    26    2
    10     6    69    1
    11     6    25    1
    12     7    44    1
    13     7    35   am
    14     8    47    1
    15     8    54    1
    16     8    68    1
    17     9    16    1
    18    10    76    1
    19    10    13    1
    20    10    74    1
    21    11    41    1
    22    12    46    2
    23    13    25    1
    24    13    45    1
    25    14    45    1
    26    14    48    1
    27    14    59    1
    28    15    24    1
    29    15    61    1
    30    15    64    1
    31    16    43   am
    32    16    28    2
    33    17    56    2
    34    18    30    1
    35    18    71    1
    36    18    70    1
    37    19    35    2
    38    20    29    1
    39    20    40    1
    40    20    73    1
    41    21    60    1
    42    21    39    1
    43    22    71    1
    44    22    78    1
    45    23    75    1
    46    23    47    1
    47    23    62    1
    48    24    29    1
    49    25    42    1
    50    27    61    1
    51    27    51    1
    52    29    44    1
    53    30    31    1
    54    31    48    1
    55    31    34    1
    56    32    34    1
    57    33    71    1
    58    34    60    1
    59    35    36    1
    60    37    46    1
    61    37    64    1
    62    38    75    1
    63    38    52   am
    64    40    66    1
    65    40    57    1
    66    41    44    1
    67    41    57    1
    68    42    53    2
    69    42    63    1
    70    43    48    1
    71    46    67    1
    72    47    50    1
    73    49    55    1
    74    52    65    1
    75    55    75    1
    76    55    68    1
    77    56    72    1
    78    56    58    1
    79    59    60    1
    80    62    69    1
    81    66    77    1
    82    69    76    1
    83    70    72    1
    84    76    79    1
    85     1    80    1
    86     2    81    1
    87     3    82    1
    88     7    83    1
    89     8    84    1
    90     9    85    1
    91     9    86    1
    92     9    87    1
    93    10    88    1
    94    11    89    1
    95    13    90    1
    96    14    91    1
    97    15    92    1
    98    18    93    1
    99    20    94    1
   100    21    95    1
   101    21    96    1
   102    22    97    1
   103    23    98    1
   104    25    99    1
   105    27   100    1
   106    29   101    1
   107    31   102    1
   108    32   103    1
   109    33   104    1
   110    34   105    1
   111    36   106    1
   112    36   107    1
   113    36   108    1
   114    37   109    1
   115    38   110    1
   116    39   111    1
   117    40   112    1
   118    41   113    1
   119    43   114    1
   120    44   115    1
   121    47   116    1
   122    48   117    1
   123    50   118    1
   124    51   119    1
   125    54   120    1
   126    54   121    1
   127    55   122    1
   128    58   123    1
   129    60   124    1
   130    61   125    1
   131    63   126    1
   132    65   127    1
   133    65   128    1
   134    65   129    1
   135    66   130    1
   136    66   131    1
   137    67   132    1
   138    69   133    1
   139    71   134    1
   140    72   135    1
   141    73   136    1
   142    74   137    1
   143    75   138    1
   144    76   139    1
   145    77   140    1
   146    78   141    1
   147    79   142    1
