@<TRIPOS>MOLECULE
1LOH_LIGAND_1_uncharged.pdb
 142 147 0 0 0
SMALL
GASTEIGER

@<TRIPOS>ATOM
      1  O6        10.0940   -6.4950   32.1340 O.3   2002  NAG2002    -0.3924
      2  C4        12.1760  -11.9420   31.7400 C.3   2001  BDP2001     0.1266
      3  O2        15.5750  -10.7150   33.0540 O.3   2001  BDP2001    -0.3841
      4  O7         7.0470  -12.2500   34.3600 O.2   2002  NAG2002    -0.2761
      5  C4        -2.0300   -7.1530   20.3660 C.2   2005  BDP2005     0.2037
      6  O5         5.3940   -9.0350   30.1420 O.3   2003  BDP2003    -0.3315
      7  N2        18.3110  -13.4090   34.0920 N.am  2000  NAG2000    -0.3053
      8  C5         9.5300   -8.5160   30.8030 C.3   2002  NAG2002     0.1130
      9  C8         2.1500   -4.5310   26.7300 C.3   2004  NAG2004     0.0122
     10  C3         2.9320  -10.5450   29.9450 C.3   2003  BDP2003     0.1149
     11  O1        19.9620  -15.8070   34.0600 O.3   2000  NAG2000    -0.3654
     12  O6A       11.9970  -15.5600   30.9260 O.2   2001  BDP2001    -0.2480
     13  C4         3.1370   -9.1600   29.1970 C.3   2003  BDP2003     0.1266
     14  C1         1.4520   -8.9710   27.0950 C.3   2004  NAG2004     0.1808
     15  C1        14.8230  -13.0050   32.4530 C.3   2001  BDP2001     0.1890
     16  C7         1.6250   -5.9440   26.8770 C.2   2004  NAG2004     0.2104
     17  O6A       -2.4130  -10.0540   20.0660 O.2   2005  BDP2005    -0.2476
     18  C1        -0.1100   -7.4400   22.6150 C.3   2005  BDP2005     0.1897
     19  O7        18.6160  -11.6590   32.5300 O.2   2000  NAG2000    -0.2761
     20  C4        16.4280  -15.8730   31.7140 C.3   2000  NAG2000     0.1116
     21  C6        -0.4000  -12.1060   25.9260 C.3   2004  NAG2004     0.0730
     22  C3        -0.7050   -6.5250   20.5140 C.3   2005  BDP2005     0.1466
     23  C3         7.5110   -9.9820   31.4240 C.3   2002  NAG2002     0.1130
     24  O3        16.1180  -13.4480   32.1100 O.3   2000  NAG2000    -0.3408
     25  C5         4.6530   -8.8010   28.8580 C.3   2003  BDP2003     0.1863
     26  O4        -2.6170   -7.2440   19.4660 O.2   2005  BDP2005    -0.2912
     27  C3        13.1690  -11.1420   32.6640 C.3   2001  BDP2001     0.1149
     28  O7         0.8370   -6.2450   27.7960 O.2   2004  NAG2004    -0.2761
     29  C3        16.5930  -14.6870   32.7370 C.3   2000  NAG2000     0.1130
     30  O3         0.9260   -7.8640   23.4670 O.3   2004  NAG2004    -0.3407
     31  C3         0.5730   -8.4570   24.7740 C.3   2004  NAG2004     0.1130
     32  O4        -0.9350  -10.2130   23.7320 O.3   2004  NAG2004    -0.3865
     33  O2         1.3180   -5.7910   21.7340 O.3   2005  BDP2005    -0.3837
     34  C4         0.2380   -9.9990   24.6050 C.3   2004  NAG2004     0.1116
     35  C7        18.5430  -12.0710   33.7050 C.2   2000  NAG2000     0.2104
     36  C8        18.6890  -11.1460   34.8880 C.3   2000  NAG2000     0.0122
     37  C5        12.3670  -13.5620   31.7700 C.3   2001  BDP2001     0.1863
     38  N2         7.8640  -12.3350   32.1550 N.am  2002  NAG2002    -0.3053
     39  O6        -0.3370  -12.6080   24.5730 O.3   2004  NAG2004    -0.3924
     40  C5        16.9550  -17.2120   32.3840 C.3   2000  NAG2000     0.1130
     41  C1        18.5840  -15.8870   33.7350 C.3   2000  NAG2000     0.1776
     42  C6         4.9500   -7.6400   28.2450 C.2   2003  BDP2003     0.3367
     43  N2         2.1340   -6.8300   25.8590 N.am  2004  NAG2004    -0.3053
     44  C2        18.1120  -14.5420   33.0920 C.3   2000  NAG2000     0.1024
     45  O4         2.6560   -8.8690   27.8210 O.3   2003  BDP2003    -0.3403
     46  C6        11.6300  -14.3550   30.9490 C.2   2001  BDP2001     0.3367
     47  C4         8.0980   -8.5200   31.4840 C.3   2002  NAG2002     0.1116
     48  C2         1.7890   -8.3360   25.7080 C.3   2004  NAG2004     0.1026
     49  O4        10.7680  -11.7530   32.1470 O.3   2001  BDP2001    -0.3403
     50  O4         7.2600   -7.5780   30.7710 O.3   2002  NAG2002    -0.3865
     51  O3        12.9110   -9.7220   32.5070 O.3   2001  BDP2001    -0.3864
     52  C7         7.1970  -12.8440   33.2900 C.2   2002  NAG2002     0.2104
     53  O6A        5.2680   -7.7730   27.0430 O.2   2003  BDP2003    -0.2480
     54  C6        10.1880   -7.1300   30.8420 C.3   2002  NAG2002     0.0730
     55  C1         9.8710  -10.8850   31.4810 C.3   2002  NAG2002     0.1808
     56  C6        -2.7840   -9.3730   21.0810 C.2   2005  BDP2005     0.3416
     57  O5        18.3930  -17.0560   32.7750 O.3   2000  NAG2000    -0.3414
     58  O6B       -3.6420   -9.6380   21.9860 O.3   2005  BDP2005    -0.4785
     59  O5         1.1120  -10.4200   26.9050 O.3   2004  NAG2004    -0.3412
     60  C5        -0.0920  -10.6010   26.0410 C.3   2004  NAG2004     0.1130
     61  C2        14.6360  -11.4590   32.2250 C.3   2001  BDP2001     0.1342
     62  O3         6.1330  -10.0590   32.0190 O.3   2002  NAG2002    -0.3408
     63  O6B        4.8270   -6.5970   28.9580 O.3   2003  BDP2003    -0.4788
     64  O5        13.8810  -13.7700   31.6410 O.3   2001  BDP2001    -0.3315
     65  C8         6.6500  -14.2180   33.0620 C.3   2002  NAG2002     0.0122
     66  C6        16.8490  -18.4340   31.4280 C.3   2000  NAG2000     0.0730
     67  O6B       10.7150  -13.7710   30.2900 O.3   2001  BDP2001    -0.4788
     68  O5        10.4320   -9.4710   31.4980 O.3   2002  NAG2002    -0.3412
     69  C1         5.2070  -10.2170   30.9460 C.3   2003  BDP2003     0.1890
     70  O5        -0.9460   -8.5230   22.1890 O.3   2005  BDP2005    -0.3265
     71  C2         0.5070   -6.9020   21.3790 C.3   2005  BDP2005     0.1386
     72  C5        -2.0960   -8.1350   21.2890 C.3   2005  BDP2005     0.2177
     73  O4        15.0280  -16.0710   31.3610 O.3   2000  NAG2000    -0.3865
     74  O3         1.5320  -10.7500   30.2160 O.3   2003  BDP2003    -0.3864
     75  C2         8.4580  -10.9400   32.1820 C.3   2002  NAG2002     0.1026
     76  C2         3.6940  -10.4010   31.3320 C.3   2003  BDP2003     0.1342
     77  O6        16.3310  -19.6350   32.0740 O.3   2000  NAG2000    -0.3924
     78  O3        -0.1930   -6.0840   19.2100 O.3   2005  BDP2005    -0.3814
     79  O2         3.5690  -11.6090   32.1200 O.3   2003  BDP2003    -0.3841
     80  H         10.5250   -5.6270   32.0990 H     2002  NAG2002     0.2095
     81  H         12.4020  -11.5490   30.7710 H     2001  BDP2001     0.0655
     82  H         16.4820  -10.9170   32.7760 H     2001  BDP2001     0.2101
     83  H         18.2760  -13.6200   35.0530 H     2000  NAG2000     0.1492
     84  H          9.3830   -8.8010   29.7820 H     2002  NAG2002     0.0647
     85  H          2.8070   -4.4810   25.8870 H     2004  NAG2004     0.0322
     86  H          2.6840   -4.2550   27.6150 H     2004  NAG2004     0.0322
     87  H          1.3300   -3.8590   26.5840 H     2004  NAG2004     0.0322
     88  H          3.2940  -11.3630   29.3570 H     2003  BDP2003     0.0648
     89  H         20.1080  -15.0680   34.6710 H     2000  NAG2000     0.2125
     90  H          2.5740   -8.6500   29.9510 H     2003  BDP2003     0.0655
     91  H          0.6270   -8.4950   27.5830 H     2004  NAG2004     0.0930
     92  H         14.6530  -13.1650   33.4970 H     2001  BDP2001     0.0938
     93  H         -0.6960   -6.7260   23.1550 H     2005  BDP2005     0.0938
     94  H         16.9850  -15.6320   30.8320 H     2000  NAG2000     0.0647
     95  H         -1.3850  -12.2800   26.3050 H     2004  NAG2004     0.0584
     96  H          0.3500  -12.6230   26.4880 H     2004  NAG2004     0.0584
     97  H         -1.1220   -5.8770   21.2560 H     2005  BDP2005     0.0702
     98  H          7.4350  -10.2670   30.3950 H     2002  NAG2002     0.0644
     99  H          4.9640   -9.4340   28.0530 H     2003  BDP2003     0.0742
    100  H         13.0330  -11.4220   33.6880 H     2001  BDP2001     0.0648
    101  H         16.0280  -14.8790   33.6250 H     2000  NAG2000     0.0644
    102  H         -0.2780   -7.9460   25.1730 H     2004  NAG2004     0.0644
    103  H         -0.7520   -9.8520   22.8510 H     2004  NAG2004     0.2100
    104  H          2.0620   -6.0940   22.2770 H     2005  BDP2005     0.2101
    105  H          1.0830  -10.4790   24.1580 H     2004  NAG2004     0.0647
    106  H         18.5930  -11.7070   35.7940 H     2000  NAG2000     0.0322
    107  H         17.9270  -10.3960   34.8510 H     2000  NAG2000     0.0322
    108  H         19.6510  -10.6780   34.8590 H     2000  NAG2000     0.0322
    109  H         11.9420  -13.9170   32.6860 H     2001  BDP2001     0.0742
    110  H          7.9440  -12.8870   31.3440 H     2002  NAG2002     0.1492
    111  H         -1.0050  -12.1610   24.0310 H     2004  NAG2004     0.2095
    112  H         16.3380  -17.3910   33.2400 H     2000  NAG2000     0.0647
    113  H         17.9950  -16.0490   34.6130 H     2000  NAG2000     0.0928
    114  H          2.7560   -6.4450   25.2010 H     2004  NAG2004     0.1492
    115  H         18.6760  -14.3220   32.2100 H     2000  NAG2000     0.0575
    116  H          8.1490   -8.2260   32.5120 H     2002  NAG2002     0.0647
    117  H          2.6310   -8.8570   25.3020 H     2004  NAG2004     0.0575
    118  H          7.2070   -7.8350   29.8370 H     2002  NAG2002     0.2100
    119  H         13.0350   -9.4720   31.5780 H     2001  BDP2001     0.2100
    120  H         11.2220   -7.2370   30.5900 H     2002  NAG2002     0.0584
    121  H          9.6670   -6.5100   30.1430 H     2002  NAG2002     0.0584
    122  H          9.7530  -11.1940   30.4630 H     2002  NAG2002     0.0930
    123  H         -3.8010   -9.0230   22.6750 H     2005  BDP2005     0.2951
    124  H         -0.9420  -10.1020   26.4570 H     2004  NAG2004     0.0647
    125  H         14.8150  -11.1840   31.2070 H     2001  BDP2001     0.0671
    126  H          4.5770   -6.6710   29.8580 H     2003  BDP2003     0.2951
    127  H          6.1560  -14.5570   33.9490 H     2002  NAG2002     0.0322
    128  H          7.4510  -14.8860   32.8230 H     2002  NAG2002     0.0322
    129  H          5.9520  -14.1940   32.2520 H     2002  NAG2002     0.0322
    130  H         17.8240  -18.6500   31.0440 H     2000  NAG2000     0.0584
    131  H         16.1580  -18.1700   30.6550 H     2000  NAG2000     0.0584
    132  H         10.5570  -12.8560   30.4170 H     2001  BDP2001     0.2951
    133  H          5.4150  -11.1400   30.4470 H     2003  BDP2003     0.0938
    134  H          1.1500   -7.5750   20.8520 H     2005  BDP2005     0.0675
    135  H         -2.7210   -7.3880   21.7320 H     2005  BDP2005     0.0796
    136  H         14.5210  -16.2890   32.1590 H     2000  NAG2000     0.2100
    137  H          1.1940  -10.0130   30.7490 H     2003  BDP2003     0.2100
    138  H          8.5750  -10.6550   33.2060 H     2002  NAG2002     0.0575
    139  H          3.2970   -9.5910   31.9070 H     2003  BDP2003     0.0671
    140  H         16.9340  -19.9060   32.7840 H     2000  NAG2000     0.2095
    141  H          0.1320   -6.8520   18.7140 H     2005  BDP2005     0.2105
    142  H          3.9230  -12.3600   31.6190 H     2003  BDP2003     0.2101
@<TRIPOS>BOND
     1     1    54    1
     2     1    80    1
     3     2    27    1
     4     2    37    1
     5     2    49    1
     6     2    81    1
     7     3    61    1
     8     3    82    1
     9     4    52    2
    10     5    22    1
    11     5    72    1
    12     5    26    2
    13     6    69    1
    14     6    25    1
    15     7    44    1
    16     7    35   am
    17     7    83    1
    18     8    47    1
    19     8    54    1
    20     8    68    1
    21     8    84    1
    22     9    16    1
    23     9    85    1
    24     9    86    1
    25     9    87    1
    26    10    76    1
    27    10    13    1
    28    10    74    1
    29    10    88    1
    30    11    41    1
    31    11    89    1
    32    12    46    2
    33    13    25    1
    34    13    45    1
    35    13    90    1
    36    14    45    1
    37    14    48    1
    38    14    59    1
    39    14    91    1
    40    15    24    1
    41    15    61    1
    42    15    64    1
    43    15    92    1
    44    16    43   am
    45    16    28    2
    46    17    56    2
    47    18    30    1
    48    18    71    1
    49    18    70    1
    50    18    93    1
    51    19    35    2
    52    20    29    1
    53    20    40    1
    54    20    73    1
    55    20    94    1
    56    21    60    1
    57    21    39    1
    58    21    95    1
    59    21    96    1
    60    22    71    1
    61    22    78    1
    62    22    97    1
    63    23    75    1
    64    23    47    1
    65    23    62    1
    66    23    98    1
    67    24    29    1
    68    25    42    1
    69    25    99    1
    70    27    61    1
    71    27    51    1
    72    27   100    1
    73    29    44    1
    74    29   101    1
    75    30    31    1
    76    31    48    1
    77    31    34    1
    78    31   102    1
    79    32    34    1
    80    32   103    1
    81    33    71    1
    82    33   104    1
    83    34    60    1
    84    34   105    1
    85    35    36    1
    86    36   106    1
    87    36   107    1
    88    36   108    1
    89    37    46    1
    90    37    64    1
    91    37   109    1
    92    38    75    1
    93    38    52   am
    94    38   110    1
    95    39   111    1
    96    40    66    1
    97    40    57    1
    98    40   112    1
    99    41    44    1
   100    41    57    1
   101    41   113    1
   102    42    53    2
   103    42    63    1
   104    43    48    1
   105    43   114    1
   106    44   115    1
   107    46    67    1
   108    47    50    1
   109    47   116    1
   110    48   117    1
   111    49    55    1
   112    50   118    1
   113    51   119    1
   114    52    65    1
   115    54   120    1
   116    54   121    1
   117    55    75    1
   118    55    68    1
   119    55   122    1
   120    56    72    1
   121    56    58    1
   122    58   123    1
   123    59    60    1
   124    60   124    1
   125    61   125    1
   126    62    69    1
   127    63   126    1
   128    65   127    1
   129    65   128    1
   130    65   129    1
   131    66    77    1
   132    66   130    1
   133    66   131    1
   134    67   132    1
   135    69    76    1
   136    69   133    1
   137    70    72    1
   138    71   134    1
   139    72   135    1
   140    73   136    1
   141    74   137    1
   142    75   138    1
   143    76    79    1
   144    76   139    1
   145    77   140    1
   146    78   141    1
   147    79   142    1
