@<TRIPOS>MOLECULE
1LXK_LIGAND_1.pdb
 97 100 0 0 0
SMALL
GASTEIGER

@<TRIPOS>ATOM
      1  O5         5.0460   -9.8170   29.9880 O.3   1003  BDP1003    -0.3315
      2  C3         7.5020  -10.1210   31.4250 C.3   1002  NAG1002     0.1130
      3  O3        16.0610  -13.4560   32.1430 O.3   1000  NAG1000    -0.3408
      4  C6        10.1180   -7.2630   30.8140 C.3   1002  NAG1002     0.0730
      5  O6A        3.6790   -9.8220   26.7690 O.2   1003  BDP1003    -0.2480
      6  C5        12.2310  -13.7130   31.7930 C.3   1001  BDP1001     0.1863
      7  C2         3.8270  -10.5820   31.9270 C.3   1003  BDP1003     0.1342
      8  O5        13.8390  -13.8320   31.7170 O.3   1001  BDP1001    -0.3315
      9  C6        11.5700  -14.4620   31.0670 C.2   1001  BDP1001     0.3367
     10  O3         6.1850  -10.1360   32.0080 O.3   1002  NAG1002    -0.3408
     11  O6B       12.0400  -15.6240   30.9400 O.3   1001  BDP1001    -0.4788
     12  O6A       10.5320  -13.9770   30.5330 O.2   1001  BDP1001    -0.2480
     13  C8        18.7070  -11.0220   34.7710 C.3   1000  NAG1000     0.0122
     14  O7         6.8340  -12.3430   34.3580 O.2   1002  NAG1002    -0.2761
     15  O2        15.4700  -10.7880   33.1660 O.3   1001  BDP1001    -0.3841
     16  C2         8.4340  -11.0450   32.2440 C.3   1002  NAG1002     0.1026
     17  C3        16.5570  -14.6640   32.8020 C.3   1000  NAG1000     0.1130
     18  O6        16.2080  -19.5400   32.3250 O.3   1000  NAG1000    -0.3924
     19  C2        18.0590  -14.4770   33.1670 C.3   1000  NAG1000     0.1024
     20  C3        13.0840  -11.2500   32.8060 C.3   1001  BDP1001     0.1149
     21  C4         8.0510   -8.6660   31.4470 C.3   1002  NAG1002     0.1116
     22  C6         4.0510   -9.2800   27.8370 C.2   1003  BDP1003     0.3367
     23  C1        14.7760  -13.0480   32.5150 C.3   1001  BDP1001     0.1890
     24  O4        15.0440  -16.1250   31.4490 O.3   1000  NAG1000    -0.3865
     25  O5        18.3910  -17.0090   32.9720 O.3   1000  NAG1000    -0.3414
     26  C5         9.4890   -8.6710   30.8030 C.3   1002  NAG1002     0.1130
     27  O1        19.9060  -15.6720   34.2150 O.3   1000  NAG1000    -0.3654
     28  C1         5.1530  -10.6020   31.1930 C.3   1003  BDP1003     0.1890
     29  C1        18.5460  -15.7820   33.8710 C.3   1000  NAG1000     0.1776
     30  C5        16.9640  -17.1870   32.5650 C.3   1000  NAG1000     0.1130
     31  C8         6.6130  -14.3410   33.0780 C.3   1002  NAG1002     0.0122
     32  C7        18.6050  -12.0140   33.6390 C.2   1000  NAG1000     0.2104
     33  C7         7.1000  -12.9490   33.3250 C.2   1002  NAG1002     0.2104
     34  O3         1.4900  -11.0870   31.5760 O.3   1003  BDP1003    -0.3864
     35  C3         2.7700  -11.0900   30.8960 C.3   1003  BDP1003     0.1145
     36  O5        10.4040   -9.5840   31.5640 O.3   1002  NAG1002    -0.3412
     37  C4         2.7510  -10.1700   29.6720 C.3   1003  BDP1003     0.1201
     38  O4        10.7280  -11.8510   32.3030 O.3   1001  BDP1001    -0.3403
     39  N2        18.2370  -13.2970   34.1030 N.am  1000  NAG1000    -0.3053
     40  C1         9.8570  -11.0190   31.5830 C.3   1002  NAG1002     0.1808
     41  O2         3.9350  -11.4030   33.1180 O.3   1003  BDP1003    -0.3841
     42  N2         7.8580  -12.4480   32.2430 N.am  1002  NAG1002    -0.3053
     43  C5         3.9700  -10.1840   29.0520 C.3   1003  BDP1003     0.1859
     44  C2        14.5290  -11.5260   32.3450 C.3   1001  BDP1001     0.1342
     45  O4         7.1920   -7.7850   30.6810 O.3   1002  NAG1002    -0.3865
     46  O6B        4.4900   -8.1270   28.0640 O.3   1003  BDP1003    -0.4788
     47  O4         1.7510  -10.5470   28.6270 O.3   1003  BDP1003    -0.3860
     48  C4        16.4270  -15.8960   31.8200 C.3   1000  NAG1000     0.1116
     49  O3        12.8050   -9.8380   32.6880 O.3   1001  BDP1001    -0.3864
     50  O6        10.3260   -6.7510   32.1440 O.3   1002  NAG1002    -0.3924
     51  C6        16.8950  -18.4460   31.6790 C.3   1000  NAG1000     0.0730
     52  C4        12.1190  -12.0380   31.8940 C.3   1001  BDP1001     0.1266
     53  O7        18.8220  -11.6960   32.4560 O.2   1000  NAG1000    -0.2761
     54 H           7.4582  -10.4703   30.4146 H     1002  NAG1002     0.0644
     55 H           9.4678   -6.5948   30.2890 H     1002  NAG1002     0.0584
     56 H          11.0771   -7.3368   30.3453 H     1002  NAG1002     0.0584
     57 H          11.6797  -14.1544   32.5968 H     1001  BDP1001     0.0742
     58 H           3.5351   -9.6127   32.2736 H     1003  BDP1003     0.0671
     59 H          12.8243  -15.8642   31.3929 H     1001  BDP1001     0.2951
     60 H          18.4800  -11.5110   35.6953 H     1000  NAG1000     0.0322
     61 H          18.0126  -10.2241   34.6097 H     1000  NAG1000     0.0322
     62 H          19.7008  -10.6273   34.8109 H     1000  NAG1000     0.0322
     63 H          15.3152   -9.8364   33.0594 H     1001  BDP1001     0.2101
     64 H           8.5144  -10.7132   33.2581 H     1002  NAG1002     0.0575
     65 H          15.9825  -14.8402   33.6873 H     1000  NAG1000     0.0644
     66 H          16.1902  -20.3065   31.7309 H     1000  NAG1000     0.2095
     67 H          18.6279  -14.2876   32.2808 H     1000  NAG1000     0.0575
     68 H          12.9591  -11.5524   33.8247 H     1001  BDP1001     0.0648
     69 H           8.0860   -8.3147   32.4571 H     1002  NAG1002     0.0647
     70 H          14.6426  -13.2208   33.5625 H     1001  BDP1001     0.0938
     71 H          14.6984  -15.3430   30.9908 H     1000  NAG1000     0.2100
     72 H           9.3740   -9.0072   29.7937 H     1002  NAG1002     0.0647
     73 H          20.0333  -14.8991   34.7871 H     1000  NAG1000     0.2125
     74 H           5.3900  -11.6116   30.9293 H     1003  BDP1003     0.0938
     75 H          17.9388  -15.9048   34.7434 H     1000  NAG1000     0.0928
     76 H          16.3328  -17.3163   33.4192 H     1000  NAG1000     0.0647
     77 H           6.0465  -14.6756   33.9218 H     1002  NAG1002     0.0322
     78 H           7.4502  -14.9908   32.9301 H     1002  NAG1002     0.0322
     79 H           5.9939  -14.3527   32.2054 H     1002  NAG1002     0.0322
     80 H           1.5311  -11.6767   32.3451 H     1003  BDP1003     0.2100
     81 H           3.0018  -12.0742   30.5460 H     1003  BDP1003     0.0648
     82 H           2.4899   -9.2096   30.0649 H     1003  BDP1003     0.0652
     83 H          18.0911  -13.4295   35.0676 H     1000  NAG1000     0.1492
     84 H           9.7805  -11.3737   30.5764 H     1002  NAG1002     0.0930
     85 H           4.1991  -12.3022   32.8680 H     1003  BDP1003     0.2101
     86 H           8.0173  -13.0281   31.4637 H     1002  NAG1002     0.1492
     87 H           4.0962  -11.1911   28.7132 H     1003  BDP1003     0.0741
     88 H          14.6639  -11.2201   31.3286 H     1001  BDP1001     0.0671
     89 H           7.1511   -8.0922   29.7618 H     1002  NAG1002     0.2100
     90 H           4.7263   -7.8789   28.9361 H     1003  BDP1003     0.2951
     91 H           1.9768  -11.4170   28.2624 H     1003  BDP1003     0.2100
     92 H          16.9914  -15.6910   30.9344 H     1000  NAG1000     0.0647
     93 H          12.9178   -9.5622   31.7649 H     1001  BDP1001     0.2100
     94 H           9.4721   -6.6720   32.5973 H     1002  NAG1002     0.2095
     95 H          16.3772  -18.2015   30.7751 H     1000  NAG1000     0.0584
     96 H          17.8986  -18.7620   31.4843 H     1000  NAG1000     0.0584
     97 H          12.4202  -11.6234   30.9547 H     1001  BDP1001     0.0655
@<TRIPOS>BOND
     1     1    28    1
     2     1    43    1
     3     2    16    1
     4     2    21    1
     5     2    10    1
     6     3    17    1
     7     3    23    1
     8     4    26    1
     9     4    50    1
    10     5    22    2
    11     6    52    1
    12     6     9    1
    13     6     8    1
    14     7    28    1
    15     7    35    1
    16     7    41    1
    17     8    23    1
    18     9    12    2
    19     9    11    1
    20    10    28    1
    21    13    32    1
    22    14    33    2
    23    15    44    1
    24    16    40    1
    25    16    42    1
    26    17    19    1
    27    17    48    1
    28    18    51    1
    29    19    29    1
    30    19    39    1
    31    20    44    1
    32    20    52    1
    33    20    49    1
    34    21    26    1
    35    21    45    1
    36    22    43    1
    37    22    46    1
    38    23    44    1
    39    24    48    1
    40    25    29    1
    41    25    30    1
    42    26    36    1
    43    27    29    1
    44    30    48    1
    45    30    51    1
    46    31    33    1
    47    32    39   am
    48    32    53    2
    49    33    42   am
    50    34    35    1
    51    35    37    1
    52    36    40    1
    53    37    43    1
    54    37    47    1
    55    38    52    1
    56    38    40    1
    57     2    54    1
    58     4    55    1
    59     4    56    1
    60     6    57    1
    61     7    58    1
    62    11    59    1
    63    13    60    1
    64    13    61    1
    65    13    62    1
    66    15    63    1
    67    16    64    1
    68    17    65    1
    69    18    66    1
    70    19    67    1
    71    20    68    1
    72    21    69    1
    73    23    70    1
    74    24    71    1
    75    26    72    1
    76    27    73    1
    77    28    74    1
    78    29    75    1
    79    30    76    1
    80    31    77    1
    81    31    78    1
    82    31    79    1
    83    34    80    1
    84    35    81    1
    85    37    82    1
    86    39    83    1
    87    40    84    1
    88    41    85    1
    89    42    86    1
    90    43    87    1
    91    44    88    1
    92    45    89    1
    93    46    90    1
    94    47    91    1
    95    48    92    1
    96    49    93    1
    97    50    94    1
    98    51    95    1
    99    51    96    1
   100    52    97    1
