@<TRIPOS>MOLECULE
1LXK_LIGAND_1_uncharged.pdb
 97 100 0 0 0
SMALL
GASTEIGER

@<TRIPOS>ATOM
      1  O5         5.0460   -9.8170   29.9880 O.3   1003  BDP1003    -0.3315
      2  C3         7.5020  -10.1210   31.4250 C.3   1002  NAG1002     0.1130
      3  O3        16.0610  -13.4560   32.1430 O.3   1000  NAG1000    -0.3408
      4  C6        10.1180   -7.2630   30.8140 C.3   1002  NAG1002     0.0730
      5  O6A        3.6790   -9.8220   26.7690 O.2   1003  BDP1003    -0.2480
      6  C5        12.2310  -13.7130   31.7930 C.3   1001  BDP1001     0.1863
      7  C2         3.8270  -10.5820   31.9270 C.3   1003  BDP1003     0.1342
      8  O5        13.8390  -13.8320   31.7170 O.3   1001  BDP1001    -0.3315
      9  C6        11.5700  -14.4620   31.0670 C.2   1001  BDP1001     0.3367
     10  O3         6.1850  -10.1360   32.0080 O.3   1002  NAG1002    -0.3408
     11  O6B       12.0400  -15.6240   30.9400 O.3   1001  BDP1001    -0.4788
     12  O6A       10.5320  -13.9770   30.5330 O.2   1001  BDP1001    -0.2480
     13  C8        18.7070  -11.0220   34.7710 C.3   1000  NAG1000     0.0122
     14  O7         6.8340  -12.3430   34.3580 O.2   1002  NAG1002    -0.2761
     15  O2        15.4700  -10.7880   33.1660 O.3   1001  BDP1001    -0.3841
     16  C2         8.4340  -11.0450   32.2440 C.3   1002  NAG1002     0.1026
     17  C3        16.5570  -14.6640   32.8020 C.3   1000  NAG1000     0.1130
     18  O6        16.2080  -19.5400   32.3250 O.3   1000  NAG1000    -0.3924
     19  C2        18.0590  -14.4770   33.1670 C.3   1000  NAG1000     0.1024
     20  C3        13.0840  -11.2500   32.8060 C.3   1001  BDP1001     0.1149
     21  C4         8.0510   -8.6660   31.4470 C.3   1002  NAG1002     0.1116
     22  C6         4.0510   -9.2800   27.8370 C.2   1003  BDP1003     0.3367
     23  C1        14.7760  -13.0480   32.5150 C.3   1001  BDP1001     0.1890
     24  O4        15.0440  -16.1250   31.4490 O.3   1000  NAG1000    -0.3865
     25  O5        18.3910  -17.0090   32.9720 O.3   1000  NAG1000    -0.3414
     26  C5         9.4890   -8.6710   30.8030 C.3   1002  NAG1002     0.1130
     27  O1        19.9060  -15.6720   34.2150 O.3   1000  NAG1000    -0.3654
     28  C1         5.1530  -10.6020   31.1930 C.3   1003  BDP1003     0.1890
     29  C1        18.5460  -15.7820   33.8710 C.3   1000  NAG1000     0.1776
     30  C5        16.9640  -17.1870   32.5650 C.3   1000  NAG1000     0.1130
     31  C8         6.6130  -14.3410   33.0780 C.3   1002  NAG1002     0.0122
     32  C7        18.6050  -12.0140   33.6390 C.2   1000  NAG1000     0.2104
     33  C7         7.1000  -12.9490   33.3250 C.2   1002  NAG1002     0.2104
     34  O3         1.4900  -11.0870   31.5760 O.3   1003  BDP1003    -0.3864
     35  C3         2.7700  -11.0900   30.8960 C.3   1003  BDP1003     0.1145
     36  O5        10.4040   -9.5840   31.5640 O.3   1002  NAG1002    -0.3412
     37  C4         2.7510  -10.1700   29.6720 C.3   1003  BDP1003     0.1201
     38  O4        10.7280  -11.8510   32.3030 O.3   1001  BDP1001    -0.3403
     39  N2        18.2370  -13.2970   34.1030 N.am  1000  NAG1000    -0.3053
     40  C1         9.8570  -11.0190   31.5830 C.3   1002  NAG1002     0.1808
     41  O2         3.9350  -11.4030   33.1180 O.3   1003  BDP1003    -0.3841
     42  N2         7.8580  -12.4480   32.2430 N.am  1002  NAG1002    -0.3053
     43  C5         3.9700  -10.1840   29.0520 C.3   1003  BDP1003     0.1859
     44  C2        14.5290  -11.5260   32.3450 C.3   1001  BDP1001     0.1342
     45  O4         7.1920   -7.7850   30.6810 O.3   1002  NAG1002    -0.3865
     46  O6B        4.4900   -8.1270   28.0640 O.3   1003  BDP1003    -0.4788
     47  O4         1.7510  -10.5470   28.6270 O.3   1003  BDP1003    -0.3860
     48  C4        16.4270  -15.8960   31.8200 C.3   1000  NAG1000     0.1116
     49  O3        12.8050   -9.8380   32.6880 O.3   1001  BDP1001    -0.3864
     50  O6        10.3260   -6.7510   32.1440 O.3   1002  NAG1002    -0.3924
     51  C6        16.8950  -18.4460   31.6790 C.3   1000  NAG1000     0.0730
     52  C4        12.1190  -12.0380   31.8940 C.3   1001  BDP1001     0.1266
     53  O7        18.8220  -11.6960   32.4560 O.2   1000  NAG1000    -0.2761
     54  H          7.4580  -10.4700   30.4150 H     1002  NAG1002     0.0644
     55  H          9.4680   -6.5950   30.2890 H     1002  NAG1002     0.0584
     56  H         11.0770   -7.3370   30.3450 H     1002  NAG1002     0.0584
     57  H         11.6800  -14.1540   32.5970 H     1001  BDP1001     0.0742
     58  H          3.5350   -9.6130   32.2740 H     1003  BDP1003     0.0671
     59  H         12.8240  -15.8640   31.3930 H     1001  BDP1001     0.2951
     60  H         18.4800  -11.5110   35.6950 H     1000  NAG1000     0.0322
     61  H         18.0130  -10.2240   34.6100 H     1000  NAG1000     0.0322
     62  H         19.7010  -10.6270   34.8110 H     1000  NAG1000     0.0322
     63  H         15.3150   -9.8360   33.0590 H     1001  BDP1001     0.2101
     64  H          8.5140  -10.7130   33.2580 H     1002  NAG1002     0.0575
     65  H         15.9820  -14.8400   33.6870 H     1000  NAG1000     0.0644
     66  H         16.1900  -20.3060   31.7310 H     1000  NAG1000     0.2095
     67  H         18.6280  -14.2880   32.2810 H     1000  NAG1000     0.0575
     68  H         12.9590  -11.5520   33.8250 H     1001  BDP1001     0.0648
     69  H          8.0860   -8.3150   32.4570 H     1002  NAG1002     0.0647
     70  H         14.6430  -13.2210   33.5620 H     1001  BDP1001     0.0938
     71  H         14.6980  -15.3430   30.9910 H     1000  NAG1000     0.2100
     72  H          9.3740   -9.0070   29.7940 H     1002  NAG1002     0.0647
     73  H         20.0330  -14.8990   34.7870 H     1000  NAG1000     0.2125
     74  H          5.3900  -11.6120   30.9290 H     1003  BDP1003     0.0938
     75  H         17.9390  -15.9050   34.7430 H     1000  NAG1000     0.0928
     76  H         16.3330  -17.3160   33.4190 H     1000  NAG1000     0.0647
     77  H          6.0460  -14.6760   33.9220 H     1002  NAG1002     0.0322
     78  H          7.4500  -14.9910   32.9300 H     1002  NAG1002     0.0322
     79  H          5.9940  -14.3530   32.2050 H     1002  NAG1002     0.0322
     80  H          1.5310  -11.6770   32.3450 H     1003  BDP1003     0.2100
     81  H          3.0020  -12.0740   30.5460 H     1003  BDP1003     0.0648
     82  H          2.4900   -9.2100   30.0650 H     1003  BDP1003     0.0652
     83  H         18.0910  -13.4300   35.0680 H     1000  NAG1000     0.1492
     84  H          9.7800  -11.3740   30.5760 H     1002  NAG1002     0.0930
     85  H          4.1990  -12.3020   32.8680 H     1003  BDP1003     0.2101
     86  H          8.0170  -13.0280   31.4640 H     1002  NAG1002     0.1492
     87  H          4.0960  -11.1910   28.7130 H     1003  BDP1003     0.0741
     88  H         14.6640  -11.2200   31.3290 H     1001  BDP1001     0.0671
     89  H          7.1510   -8.0920   29.7620 H     1002  NAG1002     0.2100
     90  H          4.7260   -7.8790   28.9360 H     1003  BDP1003     0.2951
     91  H          1.9770  -11.4170   28.2620 H     1003  BDP1003     0.2100
     92  H         16.9910  -15.6910   30.9340 H     1000  NAG1000     0.0647
     93  H         12.9180   -9.5620   31.7650 H     1001  BDP1001     0.2100
     94  H          9.4720   -6.6720   32.5970 H     1002  NAG1002     0.2095
     95  H         16.3770  -18.2010   30.7750 H     1000  NAG1000     0.0584
     96  H         17.8990  -18.7620   31.4840 H     1000  NAG1000     0.0584
     97  H         12.4200  -11.6230   30.9550 H     1001  BDP1001     0.0655
@<TRIPOS>BOND
     1     1    28    1
     2     1    43    1
     3     2    16    1
     4     2    21    1
     5     2    10    1
     6     2    54    1
     7     3    17    1
     8     3    23    1
     9     4    26    1
    10     4    50    1
    11     4    55    1
    12     4    56    1
    13     5    22    2
    14     6    52    1
    15     6     9    1
    16     6     8    1
    17     6    57    1
    18     7    28    1
    19     7    35    1
    20     7    41    1
    21     7    58    1
    22     8    23    1
    23     9    12    2
    24     9    11    1
    25    10    28    1
    26    11    59    1
    27    13    32    1
    28    13    60    1
    29    13    61    1
    30    13    62    1
    31    14    33    2
    32    15    44    1
    33    15    63    1
    34    16    40    1
    35    16    42    1
    36    16    64    1
    37    17    19    1
    38    17    48    1
    39    17    65    1
    40    18    51    1
    41    18    66    1
    42    19    29    1
    43    19    39    1
    44    19    67    1
    45    20    44    1
    46    20    52    1
    47    20    49    1
    48    20    68    1
    49    21    26    1
    50    21    45    1
    51    21    69    1
    52    22    43    1
    53    22    46    1
    54    23    44    1
    55    23    70    1
    56    24    48    1
    57    24    71    1
    58    25    29    1
    59    25    30    1
    60    26    36    1
    61    26    72    1
    62    27    29    1
    63    27    73    1
    64    28    74    1
    65    29    75    1
    66    30    48    1
    67    30    51    1
    68    30    76    1
    69    31    33    1
    70    31    77    1
    71    31    78    1
    72    31    79    1
    73    32    39   am
    74    32    53    2
    75    33    42   am
    76    34    35    1
    77    34    80    1
    78    35    37    1
    79    35    81    1
    80    36    40    1
    81    37    43    1
    82    37    47    1
    83    37    82    1
    84    38    52    1
    85    38    40    1
    86    39    83    1
    87    40    84    1
    88    41    85    1
    89    42    86    1
    90    43    87    1
    91    44    88    1
    92    45    89    1
    93    46    90    1
    94    47    91    1
    95    48    92    1
    96    49    93    1
    97    50    94    1
    98    51    95    1
    99    51    96    1
   100    52    97    1
