@<TRIPOS>MOLECULE
1OFL_LIGAND_3.pdb
 51 52 0 0 0
SMALL
GASTEIGER

@<TRIPOS>ATOM
      1  O3S       36.3920   11.1740   30.6700 O.2   526  NGK526     -0.1181
      2  O2S       37.9010   12.2820   29.0930 O.2   526  NGK526     -0.1181
      3  O2        35.6540    5.5330   31.0710 O.3   527  GCD527     -0.3827
      4  O1S       35.6750   13.2650   29.6530 O.3   526  NGK526     -0.2311
      5  C2        35.4270    8.9000   26.7860 C.3   526  NGK526      0.1026
      6  C6        33.4010   12.6680   27.5160 C.3   526  NGK526      0.0731
      7  O3        37.5180    8.6990   31.2880 O.3   527  GCD527     -0.3848
      8  C3        36.6150    7.6730   31.7150 C.3   527  GCD527      0.1089
      9  C5        33.6160   11.1500   27.3150 C.3   526  NGK526      0.1156
     10  C5        34.1620    8.2480   31.8430 C.2   527  GCD527      0.2060
     11  O7        37.8710    7.5460   27.1820 O.2   526  NGK526     -0.2761
     12  C1        34.5660    9.5590   25.7030 C.3   526  NGK526      0.1777
     13  C4        35.4090    8.3140   32.3600 C.2   527  GCD527     -0.0042
     14  C4        34.4700   10.5010   28.4070 C.3   526  NGK526      0.1459
     15  C1        35.0580    7.3280   29.7250 C.3   527  GCD527      0.2313
     16  O5        33.9210    7.5340   30.5810 O.2   527  GCD527     -0.4539
     17  O1        33.3270    8.8980   25.6290 O.3   526  NGK526     -0.3654
     18  C2        36.1810    6.7470   30.5550 C.3   527  GCD527      0.1466
     19  O6B       31.9470    8.9970   32.0590 O.2   527  GCD527     -0.2417
     20  O4        35.7670   11.0760   28.3360 O.3   526  NGK526     -0.2071
     21  O3        35.5510    8.5720   29.1770 O.3   526  NGK526     -0.3314
     22  S         36.4040   12.0360   29.4960 S.O2  526  NGK526      0.2079
     23  C3        34.7120    9.0160   28.1350 C.3   526  NGK526      0.1166
     24  O5        34.2700   10.9050   26.0550 O.3   526  NGK526     -0.3413
     25  C8        37.1360    5.6090   25.9950 C.3   526  NGK526      0.0122
     26  C6        33.0930    8.9360   32.5630 C.2   527  GCD527      0.3717
     27  O6        32.4230   12.7980   28.5350 O.3   526  NGK526     -0.3924
     28  C7        36.9490    6.9740   26.5950 C.2   526  NGK526      0.2104
     29  N         35.7390    7.5180   26.4170 N.am  526  NGK526     -0.3053
     30  O6A       33.3800    9.4580   33.6620 O.3   527  GCD527     -0.4750
     31 H          36.3242    5.0973   31.6205 H     527  GCD527      0.2102
     32 H          36.0882   13.7994   30.3491 H     526  NGK526      0.2469
     33 H          36.3663    9.4046   26.8755 H     526  NGK526      0.0575
     34 H          33.0534   13.1166   26.6089 H     526  NGK526      0.0584
     35 H          34.3128   13.1584   27.7861 H     526  NGK526      0.0584
     36 H          38.2951    8.2934   30.8727 H     527  GCD527      0.2103
     37 H          37.1263    7.0550   32.4232 H     527  GCD527      0.0667
     38 H          32.6386   10.7159   27.3500 H     526  NGK526      0.0648
     39 H          35.1057    9.5117   24.7803 H     526  NGK526      0.0928
     40 H          35.5445    8.8303   33.2432 H     527  GCD527      0.0637
     41 H          33.9621   10.6419   29.3382 H     526  NGK526      0.0675
     42 H          34.7530    6.6826   28.9279 H     527  GCD527      0.1084
     43 H          32.8731    8.9653   26.4836 H     526  NGK526      0.2125
     44 H          37.0596    6.6117   29.9594 H     527  GCD527      0.0685
     45 H          33.8122    8.4381   28.0990 H     526  NGK526      0.0645
     46 H          38.1301    5.2659   26.1921 H     526  NGK526      0.0322
     47 H          36.9792    5.6596   24.9378 H     526  NGK526      0.0322
     48 H          36.4318    4.9296   26.4279 H     526  NGK526      0.0322
     49 H          31.6099   12.3448   28.2624 H     526  NGK526      0.2095
     50 H          35.0278    6.9646   26.0206 H     526  NGK526      0.1492
     51 H          34.2507    9.3874   34.0010 H     527  GCD527      0.2955
@<TRIPOS>BOND
     1     1    22    2
     2     2    22    2
     3     3    18    1
     4     4    22    1
     5     5    12    1
     6     5    23    1
     7     5    29    1
     8     6     9    1
     9     6    27    1
    10     7     8    1
    11     8    18    1
    12     8    13    1
    13     9    14    1
    14     9    24    1
    15    10    13    2
    16    10    16    1
    17    10    26    1
    18    11    28    2
    19    12    17    1
    20    12    24    1
    21    14    23    1
    22    14    20    1
    23    15    21    1
    24    15    18    1
    25    15    16    1
    26    19    26    2
    27    20    22    1
    28    21    23    1
    29    25    28    1
    30    26    30    1
    31    28    29   am
    32     3    31    1
    33     4    32    1
    34     5    33    1
    35     6    34    1
    36     6    35    1
    37     7    36    1
    38     8    37    1
    39     9    38    1
    40    12    39    1
    41    13    40    1
    42    14    41    1
    43    15    42    1
    44    17    43    1
    45    18    44    1
    46    23    45    1
    47    25    46    1
    48    25    47    1
    49    25    48    1
    50    27    49    1
    51    29    50    1
    52    30    51    1
