@<TRIPOS>MOLECULE
1OFL_LIGAND_1.pdb
 51 52 0 0 0
SMALL
GASTEIGER

@<TRIPOS>ATOM
      1  O6        29.2210   23.9510    3.1010 O.3   517  ASG517     -0.3924
      2  O6B       29.8270   25.6370   -1.0540 O.2   519  GCD519     -0.2417
      3  OSC       27.3680   26.2490    0.7180 O.2   517  ASG517     -0.1181
      4  O5        28.0470   23.9430   -2.2300 O.2   519  GCD519     -0.4539
      5  C7        23.6680   21.0930   -1.3330 C.2   517  ASG517      0.2104
      6  C3        27.0260   24.5310   -4.7440 C.3   519  GCD519      0.1089
      7  C4        28.1680   25.3560   -4.1780 C.2   519  GCD519     -0.0042
      8  C1        25.6940   21.1030    1.5520 C.3   517  ASG517      0.1777
      9  C1        26.7470   23.4110   -2.4400 C.3   519  GCD519      0.2313
     10  O6A       30.5230   26.4210   -2.9710 O.3   519  GCD519     -0.4750
     11  O5        26.2300   21.9080    2.5920 O.3   517  ASG517     -0.3413
     12  O3        26.0360   23.4960   -1.1880 O.3   517  ASG517     -0.3314
     13  C5        28.6160   25.0610   -2.9450 C.2   519  GCD519      0.2060
     14  O1        24.5440   20.4400    2.0200 O.3   517  ASG517     -0.3654
     15  C8        23.3100   20.0350   -2.3800 C.3   517  ASG517      0.0122
     16  C4        27.0710   23.4240    0.9960 C.3   517  ASG517      0.1459
     17  OSB       24.9260   26.2860    0.2220 O.2   517  ASG517     -0.1181
     18  C6        29.7080   25.7640   -2.2890 C.2   519  GCD519      0.3717
     19  OSA       25.7720   26.6340    2.4900 O.3   517  ASG517     -0.2311
     20  C3        26.5170   22.6180   -0.1760 C.3   517  ASG517      0.1166
     21  C6        27.9730   23.3550    3.3900 C.3   517  ASG517      0.0731
     22  S         26.0650   25.9560    1.2390 S.O2  517  ASG517      0.2079
     23  O3        26.3850   25.3260   -5.7440 O.3   519  GCD519     -0.3848
     24  C2        25.2960   21.8680    0.3100 C.3   517  ASG517      0.1026
     25  C5        27.4220   22.5610    2.2040 C.3   517  ASG517      0.1156
     26  O7        22.9180   22.0520   -1.0760 O.2   517  ASG517     -0.2761
     27  O2        25.0070   23.3390   -4.0410 O.3   519  GCD519     -0.3827
     28  C2        26.0630   24.1640   -3.5900 C.3   519  GCD519      0.1466
     29  O4        26.0420   24.3360    1.4210 O.3   517  ASG517     -0.2071
     30  N         24.8250   20.8830   -0.6820 N.am  517  ASG517     -0.3053
     31 H          29.5321   24.4424    3.8773 H     517  ASG517      0.2095
     32 H          27.3635   23.6177   -5.1877 H     519  GCD519      0.0667
     33 H          28.5893   26.1229   -4.7252 H     519  GCD519      0.0637
     34 H          26.4801   20.4300    1.2798 H     517  ASG517      0.0928
     35 H          26.7727   22.3833   -2.7369 H     519  GCD519      0.1084
     36 H          30.4048   26.4970   -3.8974 H     519  GCD519      0.2955
     37 H          23.8658   21.0936    2.2518 H     517  ASG517      0.2125
     38 H          24.0938   19.3087   -2.4356 H     517  ASG517      0.0322
     39 H          23.1898   20.5039   -3.3343 H     517  ASG517      0.0322
     40 H          22.3961   19.5529   -2.1019 H     517  ASG517      0.0322
     41 H          27.9638   23.9084    0.6597 H     517  ASG517      0.0675
     42 H          25.7929   27.5937    2.3503 H     517  ASG517      0.2469
     43 H          27.2886   21.9774   -0.5491 H     517  ASG517      0.0645
     44 H          27.2743   24.1247    3.6436 H     517  ASG517      0.0584
     45 H          28.1151   22.6740    4.2030 H     517  ASG517      0.0584
     46 H          26.0763   26.1561   -5.3483 H     519  GCD519      0.2103
     47 H          24.5131   22.5749    0.4896 H     517  ASG517      0.0575
     48 H          28.1997   21.8820    1.9228 H     517  ASG517      0.0648
     49 H          24.5439   23.7773   -4.7720 H     519  GCD519      0.2102
     50 H          25.7015   25.1062   -3.2343 H     519  GCD519      0.0685
     51 H          25.3561   20.0749   -0.8665 H     517  ASG517      0.1492
@<TRIPOS>BOND
     1     1    21    1
     2     2    18    2
     3     3    22    2
     4     4     9    1
     5     4    13    1
     6     5    15    1
     7     5    30   am
     8     5    26    2
     9     6    28    1
    10     6    23    1
    11     6     7    1
    12     7    13    2
    13     8    24    1
    14     8    14    1
    15     8    11    1
    16     9    12    1
    17     9    28    1
    18    10    18    1
    19    11    25    1
    20    12    20    1
    21    13    18    1
    22    16    20    1
    23    16    25    1
    24    16    29    1
    25    17    22    2
    26    19    22    1
    27    20    24    1
    28    21    25    1
    29    22    29    1
    30    24    30    1
    31    27    28    1
    32     1    31    1
    33     6    32    1
    34     7    33    1
    35     8    34    1
    36     9    35    1
    37    10    36    1
    38    14    37    1
    39    15    38    1
    40    15    39    1
    41    15    40    1
    42    16    41    1
    43    19    42    1
    44    20    43    1
    45    21    44    1
    46    21    45    1
    47    23    46    1
    48    24    47    1
    49    25    48    1
    50    27    49    1
    51    28    50    1
    52    30    51    1
