REMARK  0 active torsions:
REMARK  status: ('A' for Active; 'I' for Inactive)
REMARK       I    between atoms: O4_1  and  C4_14 
REMARK       I    between atoms: O4_1  and  S_23 
REMARK       I    between atoms: C5_2  and  C6_7 
REMARK       I    between atoms: C2_6  and  N_11 
REMARK       I    between atoms: C6_7  and  O6_9 
REMARK       I    between atoms: O3_10  and  C3_19 
REMARK       I    between atoms: O3_10  and  C1_30 
REMARK       I    between atoms: N_11  and  C7_13 
REMARK       I    between atoms: C5_12  and  C6_29 
REMARK       I    between atoms: O3_15  and  C3_16 
REMARK       I    between atoms: O1_17  and  C1_21 
REMARK       I    between atoms: C2_24  and  O2_27 
REMARK       I    between atoms: O6B_26  and  C6_29 
ROOT
ATOM      1  O4  ASG d 523      31.025  16.647  -4.528  0.00  0.00    -0.246 OA
ATOM      2  C5  ASG d 523      32.281  18.261  -5.825  0.00  0.00     0.181 C 
ATOM      3  O7  ASG d 523      34.088  13.736  -3.100  0.00  0.00    -0.274 OA
ATOM      4  C8  ASG d 523      35.646  12.740  -4.476  0.00  0.00     0.117 C 
ATOM      5  OSB ASG d 523      28.932  16.558  -2.928  0.00  0.00    -0.572 OA
ATOM      6  C2  ASG d 523      33.706  15.980  -4.815  0.00  0.00     0.171 C 
ATOM      7  C6  ASG d 523      31.231  19.340  -5.638  0.00  0.00     0.199 C 
ATOM      8  O6  ASG d 523      31.871  20.602  -5.619  0.00  0.00    -0.398 OA
ATOM      9  O3  ASG d 523      32.052  14.551  -5.802  0.00  0.00    -0.348 OA
ATOM     10  N   ASG d 523      34.728  14.946  -4.897  0.00  0.00    -0.349 N 
ATOM     11  C7  ASG d 523      34.744  13.872  -4.097  0.00  0.00     0.214 C 
ATOM     12  C4  ASG d 523      31.625  16.892  -5.812  0.00  0.00     0.207 C 
ATOM     13  O1  ASG d 523      35.065  17.551  -3.737  0.00  0.00    -0.369 OA
ATOM     14  O5  ASG d 523      33.183  18.267  -4.711  0.00  0.00    -0.349 OA
ATOM     15  C3  ASG d 523      32.698  15.818  -5.951  0.00  0.00     0.185 C 
ATOM     16  C1  ASG d 523      34.310  17.384  -4.897  0.00  0.00     0.282 C 
ATOM     17  OSA ASG d 523      28.867  17.585  -5.166  0.00  0.00    -0.572 OA
ATOM     18  S   ASG d 523      29.397  16.483  -4.408  0.00  0.00     0.252 S 
ATOM     19  OSC ASG d 523      29.047  15.227  -4.991  0.00  0.00    -0.572 OA
ATOM     20  H   ASG d 523      32.509  20.630  -4.889  0.00  0.00     0.209 HD
ATOM     21  H   ASG d 523      35.439  15.041  -5.571  0.00  0.00     0.163 HD
ATOM     22  H   ASG d 523      35.852  16.986  -3.779  0.00  0.00     0.212 HD
ATOM     23  O5  GCD d 525      32.118  14.071  -8.131  0.00  0.00    -0.311 OA
ATOM     24  C5  GCD d 525      30.715  13.984  -8.518  0.00  0.00     0.144 C 
ATOM     25  O3  GCD d 525      29.759  12.761  -5.433  0.00  0.00    -0.389 OA
ATOM     26  C3  GCD d 525      30.319  12.310  -6.664  0.00  0.00     0.177 C 
ATOM     27  O6A GCD d 525      29.075  14.464 -10.089  0.00  0.00    -0.645 OA
ATOM     28  C2  GCD d 525      31.853  12.259  -6.558  0.00  0.00     0.206 C 
ATOM     29  O6B GCD d 525      30.894  15.667 -10.174  0.00  0.00    -0.771 OA
ATOM     30  O2  GCD d 525      32.376  11.334  -7.511  0.00  0.00    -0.388 OA
ATOM     31  C4  GCD d 525      29.889  13.180  -7.833  0.00  0.00     0.051 C 
ATOM     32  C6  GCD d 525      30.205  14.760  -9.660  0.00  0.00     0.200 C 
ATOM     33  C1  GCD d 525      32.483  13.631  -6.823  0.00  0.00     0.298 C 
ATOM     34  H   GCD d 525      30.055  12.183  -4.712  0.00  0.00     0.210 HD
ATOM     35  H   GCD d 525      31.741  15.865  -9.827  0.00  0.00     0.167 HD
ATOM     36  H   GCD d 525      32.148  11.629  -8.406  0.00  0.00     0.210 HD
ENDROOT
TORSDOF 12
