@<TRIPOS>MOLECULE
1OFL_LIGAND_1_uncharged.pdb
 50 51 0 0 0
SMALL
GASTEIGER

@<TRIPOS>ATOM
      1  O6        29.2210   23.9510    3.1010 O.3   517  ASG517     -0.3924
      2  O6B       29.8270   25.6370   -1.0540 O.2   519  GCD519     -0.2417
      3  OSC       27.3680   26.2490    0.7180 O.2   517  ASG517     -0.3452
      4  O5        28.0470   23.9430   -2.2300 O.2   519  GCD519     -0.4539
      5  C7        23.6680   21.0930   -1.3330 C.2   517  ASG517      0.2104
      6  C3        27.0260   24.5310   -4.7440 C.3   519  GCD519      0.1089
      7  C4        28.1680   25.3560   -4.1780 C.2   519  GCD519     -0.0042
      8  C1        25.6940   21.1030    1.5520 C.3   517  ASG517      0.1777
      9  C1        26.7470   23.4110   -2.4400 C.3   519  GCD519      0.2313
     10  O6A       30.5230   26.4210   -2.9710 O.3   519  GCD519     -0.4750
     11  O5        26.2300   21.9080    2.5920 O.3   517  ASG517     -0.3413
     12  O3        26.0360   23.4960   -1.1880 O.3   517  ASG517     -0.3314
     13  C5        28.6160   25.0610   -2.9450 C.2   519  GCD519      0.2060
     14  O1        24.5440   20.4400    2.0200 O.3   517  ASG517     -0.3654
     15  C8        23.3100   20.0350   -2.3800 C.3   517  ASG517      0.0122
     16  C4        27.0710   23.4240    0.9960 C.3   517  ASG517      0.1419
     17  OSB       24.9260   26.2860    0.2220 O.2   517  ASG517     -0.3452
     18  C6        29.7080   25.7640   -2.2890 C.2   519  GCD519      0.3717
     19  OSA       25.7720   26.6340    2.4900 O.3   517  ASG517     -0.2682
     20  C3        26.5170   22.6180   -0.1760 C.3   517  ASG517      0.1165
     21  C6        27.9730   23.3550    3.3900 C.3   517  ASG517      0.0731
     22  S         26.0650   25.9560    1.2390 S.3   517  ASG517     -0.0004
     23  O3        26.3850   25.3260   -5.7440 O.3   519  GCD519     -0.3848
     24  C2        25.2960   21.8680    0.3100 C.3   517  ASG517      0.1026
     25  C5        27.4220   22.5610    2.2040 C.3   517  ASG517      0.1154
     26  O7        22.9180   22.0520   -1.0760 O.2   517  ASG517     -0.2761
     27  O2        25.0070   23.3390   -4.0410 O.3   519  GCD519     -0.3827
     28  C2        26.0630   24.1640   -3.5900 C.3   519  GCD519      0.1466
     29  O4        26.0420   24.3360    1.4210 O.3   517  ASG517     -0.2460
     30  N         24.8250   20.8830   -0.6820 N.am  517  ASG517     -0.3053
     31  H         29.5320   24.4420    3.8770 H     517  ASG517      0.2095
     32  H         27.3630   23.6180   -5.1880 H     519  GCD519      0.0667
     33  H         28.5890   26.1230   -4.7250 H     519  GCD519      0.0637
     34  H         26.4800   20.4300    1.2800 H     517  ASG517      0.0928
     35  H         26.7730   22.3830   -2.7370 H     519  GCD519      0.1084
     36  H         30.4050   26.4970   -3.8970 H     519  GCD519      0.2955
     37  H         23.8660   21.0940    2.2520 H     517  ASG517      0.2125
     38  H         24.0940   19.3090   -2.4360 H     517  ASG517      0.0322
     39  H         23.1900   20.5040   -3.3340 H     517  ASG517      0.0322
     40  H         22.3960   19.5530   -2.1020 H     517  ASG517      0.0322
     41  H         27.9640   23.9080    0.6600 H     517  ASG517      0.0673
     42  H         27.2890   21.9770   -0.5490 H     517  ASG517      0.0645
     43  H         27.2740   24.1250    3.6440 H     517  ASG517      0.0584
     44  H         28.1150   22.6740    4.2030 H     517  ASG517      0.0584
     45  H         26.0760   26.1560   -5.3480 H     519  GCD519      0.2103
     46  H         24.5130   22.5750    0.4900 H     517  ASG517      0.0575
     47  H         28.2000   21.8820    1.9230 H     517  ASG517      0.0648
     48  H         24.5440   23.7770   -4.7720 H     519  GCD519      0.2102
     49  H         25.7010   25.1060   -3.2340 H     519  GCD519      0.0685
     50  H         25.3560   20.0750   -0.8670 H     517  ASG517      0.1492
@<TRIPOS>BOND
     1     1    21    1
     2     1    31    1
     3     2    18    2
     4     3    22    2
     5     4     9    1
     6     4    13    1
     7     5    15    1
     8     5    30   am
     9     5    26    2
    10     6    28    1
    11     6    23    1
    12     6     7    1
    13     6    32    1
    14     7    13    2
    15     7    33    1
    16     8    24    1
    17     8    14    1
    18     8    11    1
    19     8    34    1
    20     9    12    1
    21     9    28    1
    22     9    35    1
    23    10    18    1
    24    10    36    1
    25    11    25    1
    26    12    20    1
    27    13    18    1
    28    14    37    1
    29    15    38    1
    30    15    39    1
    31    15    40    1
    32    16    20    1
    33    16    25    1
    34    16    29    1
    35    16    41    1
    36    17    22    2
    37    19    22    1
    38    20    24    1
    39    20    42    1
    40    21    25    1
    41    21    43    1
    42    21    44    1
    43    22    29    1
    44    23    45    1
    45    24    30    1
    46    24    46    1
    47    25    47    1
    48    27    28    1
    49    27    48    1
    50    28    49    1
    51    30    50    1
