@<TRIPOS>MOLECULE
1OFL_LIGAND_3_uncharged.pdb
 50 51 0 0 0
SMALL
GASTEIGER

@<TRIPOS>ATOM
      1  O3S       36.3920   11.1740   30.6700 O.2   526  NGK526     -0.3452
      2  O2S       37.9010   12.2820   29.0930 O.2   526  NGK526     -0.3452
      3  O2        35.6540    5.5330   31.0710 O.3   527  GCD527     -0.3827
      4  O1S       35.6750   13.2650   29.6530 O.3   526  NGK526     -0.2682
      5  C2        35.4270    8.9000   26.7860 C.3   526  NGK526      0.1026
      6  C6        33.4010   12.6680   27.5160 C.3   526  NGK526      0.0731
      7  O3        37.5180    8.6990   31.2880 O.3   527  GCD527     -0.3848
      8  C3        36.6150    7.6730   31.7150 C.3   527  GCD527      0.1089
      9  C5        33.6160   11.1500   27.3150 C.3   526  NGK526      0.1154
     10  C5        34.1620    8.2480   31.8430 C.2   527  GCD527      0.2060
     11  O7        37.8710    7.5460   27.1820 O.2   526  NGK526     -0.2761
     12  C1        34.5660    9.5590   25.7030 C.3   526  NGK526      0.1777
     13  C4        35.4090    8.3140   32.3600 C.2   527  GCD527     -0.0042
     14  C4        34.4700   10.5010   28.4070 C.3   526  NGK526      0.1419
     15  C1        35.0580    7.3280   29.7250 C.3   527  GCD527      0.2313
     16  O5        33.9210    7.5340   30.5810 O.2   527  GCD527     -0.4539
     17  O1        33.3270    8.8980   25.6290 O.3   526  NGK526     -0.3654
     18  C2        36.1810    6.7470   30.5550 C.3   527  GCD527      0.1466
     19  O6B       31.9470    8.9970   32.0590 O.2   527  GCD527     -0.2417
     20  O4        35.7670   11.0760   28.3360 O.3   526  NGK526     -0.2460
     21  O3        35.5510    8.5720   29.1770 O.3   526  NGK526     -0.3314
     22  S         36.4040   12.0360   29.4960 S.3   526  NGK526     -0.0004
     23  C3        34.7120    9.0160   28.1350 C.3   526  NGK526      0.1165
     24  O5        34.2700   10.9050   26.0550 O.3   526  NGK526     -0.3413
     25  C8        37.1360    5.6090   25.9950 C.3   526  NGK526      0.0122
     26  C6        33.0930    8.9360   32.5630 C.2   527  GCD527      0.3717
     27  O6        32.4230   12.7980   28.5350 O.3   526  NGK526     -0.3924
     28  C7        36.9490    6.9740   26.5950 C.2   526  NGK526      0.2104
     29  N         35.7390    7.5180   26.4170 N.am  526  NGK526     -0.3053
     30  O6A       33.3800    9.4580   33.6620 O.3   527  GCD527     -0.4750
     31  H         36.3240    5.0970   31.6200 H     527  GCD527      0.2102
     32  H         36.3660    9.4050   26.8750 H     526  NGK526      0.0575
     33  H         33.0530   13.1170   26.6090 H     526  NGK526      0.0584
     34  H         34.3130   13.1580   27.7860 H     526  NGK526      0.0584
     35  H         38.2950    8.2930   30.8730 H     527  GCD527      0.2103
     36  H         37.1260    7.0550   32.4230 H     527  GCD527      0.0667
     37  H         32.6390   10.7160   27.3500 H     526  NGK526      0.0648
     38  H         35.1060    9.5120   24.7800 H     526  NGK526      0.0928
     39  H         35.5440    8.8300   33.2430 H     527  GCD527      0.0637
     40  H         33.9620   10.6420   29.3380 H     526  NGK526      0.0673
     41  H         34.7530    6.6830   28.9280 H     527  GCD527      0.1084
     42  H         32.8730    8.9650   26.4840 H     526  NGK526      0.2125
     43  H         37.0600    6.6120   29.9590 H     527  GCD527      0.0685
     44  H         33.8120    8.4380   28.0990 H     526  NGK526      0.0645
     45  H         38.1300    5.2660   26.1920 H     526  NGK526      0.0322
     46  H         36.9790    5.6600   24.9380 H     526  NGK526      0.0322
     47  H         36.4320    4.9300   26.4280 H     526  NGK526      0.0322
     48  H         31.6100   12.3450   28.2620 H     526  NGK526      0.2095
     49  H         35.0280    6.9650   26.0210 H     526  NGK526      0.1492
     50  H         34.2510    9.3870   34.0010 H     527  GCD527      0.2955
@<TRIPOS>BOND
     1     1    22    2
     2     2    22    2
     3     3    18    1
     4     3    31    1
     5     4    22    1
     6     5    12    1
     7     5    23    1
     8     5    29    1
     9     5    32    1
    10     6     9    1
    11     6    27    1
    12     6    33    1
    13     6    34    1
    14     7     8    1
    15     7    35    1
    16     8    18    1
    17     8    13    1
    18     8    36    1
    19     9    14    1
    20     9    24    1
    21     9    37    1
    22    10    13    2
    23    10    16    1
    24    10    26    1
    25    11    28    2
    26    12    17    1
    27    12    24    1
    28    12    38    1
    29    13    39    1
    30    14    23    1
    31    14    20    1
    32    14    40    1
    33    15    21    1
    34    15    18    1
    35    15    16    1
    36    15    41    1
    37    17    42    1
    38    18    43    1
    39    19    26    2
    40    20    22    1
    41    21    23    1
    42    23    44    1
    43    25    28    1
    44    25    45    1
    45    25    46    1
    46    25    47    1
    47    26    30    1
    48    27    48    1
    49    28    29   am
    50    29    49    1
    51    30    50    1
