@<TRIPOS>MOLECULE
1OFL_LIGAND_2.pdb
 51 52 0 0 0
SMALL
GASTEIGER

@<TRIPOS>ATOM
      1  O4        31.0250   16.6470   -4.5280 O.3   523  ASG523     -0.2071
      2  C5        32.2810   18.2610   -5.8250 C.3   523  ASG523      0.1156
      3  O7        34.0880   13.7360   -3.1000 O.2   523  ASG523     -0.2761
      4  C8        35.6460   12.7400   -4.4760 C.3   523  ASG523      0.0122
      5  OSB       28.9320   16.5580   -2.9280 O.2   523  ASG523     -0.1181
      6  C2        33.7060   15.9800   -4.8150 C.3   523  ASG523      0.1026
      7  C6        31.2310   19.3400   -5.6380 C.3   523  ASG523      0.0731
      8  O5        32.1180   14.0710   -8.1310 O.2   525  GCD525     -0.4539
      9  O6        31.8710   20.6020   -5.6190 O.3   523  ASG523     -0.3924
     10  O3        32.0520   14.5510   -5.8020 O.3   523  ASG523     -0.3314
     11  N         34.7280   14.9460   -4.8970 N.am  523  ASG523     -0.3053
     12  C5        30.7150   13.9840   -8.5180 C.2   525  GCD525      0.2060
     13  C7        34.7440   13.8720   -4.0970 C.2   523  ASG523      0.2104
     14  C4        31.6250   16.8920   -5.8120 C.3   523  ASG523      0.1459
     15  O3        29.7590   12.7610   -5.4330 O.3   525  GCD525     -0.3848
     16  C3        30.3190   12.3100   -6.6640 C.3   525  GCD525      0.1089
     17  O1        35.0650   17.5510   -3.7370 O.3   523  ASG523     -0.3654
     18  O5        33.1830   18.2670   -4.7110 O.3   523  ASG523     -0.3413
     19  C3        32.6980   15.8180   -5.9510 C.3   523  ASG523      0.1166
     20  O6A       29.0750   14.4640  -10.0890 O.2   525  GCD525     -0.2417
     21  C1        34.3100   17.3840   -4.8970 C.3   523  ASG523      0.1777
     22  OSA       28.8670   17.5850   -5.1660 O.2   523  ASG523     -0.1181
     23  S         29.3970   16.4830   -4.4080 S.O2  523  ASG523      0.2079
     24  C2        31.8530   12.2590   -6.5580 C.3   525  GCD525      0.1466
     25  OSC       29.0470   15.2270   -4.9910 O.3   523  ASG523     -0.2311
     26  O6B       30.8940   15.6670  -10.1740 O.3   525  GCD525     -0.4750
     27  O2        32.3760   11.3340   -7.5110 O.3   525  GCD525     -0.3827
     28  C4        29.8890   13.1800   -7.8330 C.2   525  GCD525     -0.0042
     29  C6        30.2050   14.7600   -9.6600 C.2   525  GCD525      0.3717
     30  C1        32.4830   13.6310   -6.8230 C.3   525  GCD525      0.2313
     31 H          32.7846   18.4506   -6.7499 H     523  ASG523      0.0648
     32 H          35.5573   11.9559   -3.7533 H     523  ASG523      0.0322
     33 H          36.6584   13.0851   -4.5054 H     523  ASG523      0.0322
     34 H          35.3674   12.3694   -5.4403 H     523  ASG523      0.0322
     35 H          33.2216   15.8678   -3.8676 H     523  ASG523      0.0575
     36 H          30.7162   19.1841   -4.7130 H     523  ASG523      0.0584
     37 H          30.5251   19.3029   -6.4412 H     523  ASG523      0.0584
     38 H          32.5094   20.6298   -4.8892 H     523  ASG523      0.2095
     39 H          35.4394   15.0407   -5.5710 H     523  ASG523      0.1492
     40 H          30.9066   16.8651   -6.6045 H     523  ASG523      0.0675
     41 H          30.0548   12.1831   -4.7123 H     525  GCD525      0.2103
     42 H          29.9488   11.3238   -6.8518 H     525  GCD525      0.0667
     43 H          35.8522   16.9859   -3.7794 H     523  ASG523      0.2125
     44 H          33.1961   15.8939   -6.8949 H     523  ASG523      0.0645
     45 H          34.8701   17.5483   -5.7938 H     523  ASG523      0.0928
     46 H          32.0936   11.9520   -5.5616 H     525  GCD525      0.0685
     47 H          29.4189   14.5078   -4.4569 H     523  ASG523      0.2469
     48 H          31.7415   15.8653   -9.8270 H     525  GCD525      0.2955
     49 H          32.1480   11.6288   -8.4065 H     525  GCD525      0.2102
     50 H          28.8976   13.1502   -8.1181 H     525  GCD525      0.0637
     51 H          33.5508   13.5736   -6.7848 H     525  GCD525      0.1084
@<TRIPOS>BOND
     1     1    14    1
     2     1    23    1
     3     2    14    1
     4     2     7    1
     5     2    18    1
     6     3    13    2
     7     4    13    1
     8     5    23    2
     9     6    21    1
    10     6    19    1
    11     6    11    1
    12     7     9    1
    13     8    30    1
    14     8    12    1
    15    10    19    1
    16    10    30    1
    17    11    13   am
    18    12    28    2
    19    12    29    1
    20    14    19    1
    21    15    16    1
    22    16    24    1
    23    16    28    1
    24    17    21    1
    25    18    21    1
    26    20    29    2
    27    22    23    2
    28    23    25    1
    29    24    30    1
    30    24    27    1
    31    26    29    1
    32     2    31    1
    33     4    32    1
    34     4    33    1
    35     4    34    1
    36     6    35    1
    37     7    36    1
    38     7    37    1
    39     9    38    1
    40    11    39    1
    41    14    40    1
    42    15    41    1
    43    16    42    1
    44    17    43    1
    45    19    44    1
    46    21    45    1
    47    24    46    1
    48    25    47    1
    49    26    48    1
    50    27    49    1
    51    28    50    1
    52    30    51    1
