@<TRIPOS>MOLECULE
1OFM_LIGAND_1.pdb
 102 105 0 0 0
SMALL
GASTEIGER

@<TRIPOS>ATOM
      1  S         26.0200   25.8700    1.1470 S.O2  608  ASG608      0.2079
      2  O5        27.9070   27.3880   -6.4210 O.3   610  ASG610     -0.3411
      3  C4        29.1370   28.8070   -7.9510 C.3   610  ASG610      0.1459
      4  C4        27.9490   25.3440   -4.3840 C.3   609  BDP609      0.1266
      5  C1        29.1030   26.8540   -5.8220 C.3   610  ASG610      0.1808
      6  C5        27.5050   22.5320    1.9880 C.3   608  ASG608      0.1156
      7  C2        25.3030   21.7350    0.2810 C.3   608  ASG608      0.1025
      8  O4        28.7440   27.9620   -9.0550 O.3   610  ASG610     -0.2071
      9  O4        26.0170   24.3040    1.4430 O.3   608  ASG608     -0.2071
     10  C8        33.3010   24.8890   -5.7290 C.3   610  ASG610      0.0122
     11  O4        28.8610   25.5420   -5.4660 O.3   609  BDP609     -0.3403
     12  C4        34.0520   31.7100   -8.4710 C.2   611  GCD611     -0.0042
     13  C5        28.0680   28.7530   -6.8550 C.3   610  ASG610      0.1156
     14  C1        32.4660   29.3370   -8.0480 C.3   611  GCD611      0.2313
     15  O6A       30.9020   25.5820   -2.6390 O.2   609  BDP609     -0.2480
     16  C7        32.1250   25.3740   -6.5700 C.2   610  ASG610      0.2104
     17  C6        28.0380   23.3260    3.1870 C.3   608  ASG608      0.0731
     18  C6        29.6970   25.9150   -2.6410 C.2   609  BDP609      0.3367
     19  C3        30.4550   28.3070   -7.3300 C.3   610  ASG610      0.1166
     20  C6        26.7040   29.2530   -7.2910 C.3   610  ASG610      0.0731
     21  OSC       28.4800   27.5830  -11.5360 O.2   610  ASG610     -0.1181
     22  O6        25.8250   29.3890   -6.1820 O.3   610  ASG610     -0.3924
     23  C5        32.7120   31.7960   -8.6720 C.2   611  GCD611      0.2060
     24  OSC       25.1140   26.2610    0.0490 O.3   608  ASG608     -0.2311
     25  OSA       25.7340   26.5150    2.4450 O.2   608  ASG608     -0.1181
     26  C3        34.6820   30.2680   -8.4280 C.3   611  GCD611      0.1089
     27  O6        29.2900   23.9440    2.9030 O.3   608  ASG608     -0.3924
     28  O6B       29.2580   27.0300   -2.2910 O.3   609  BDP609     -0.4788
     29  O2        34.3780   27.8510   -8.0590 O.3   611  GCD611     -0.3827
     30  O5        26.4010   21.7410    2.4860 O.3   608  ASG608     -0.3413
     31  O1        24.7120   20.2630    2.0600 O.3   608  ASG608     -0.3654
     32  C2        33.7710   29.0110   -8.7010 C.3   611  GCD611      0.1466
     33  C6        31.8640   33.0400   -8.7550 C.2   611  GCD611      0.3717
     34  O5        31.9500   30.5380   -8.8100 O.2   611  GCD611     -0.4539
     35  O7        31.8190   24.7760   -7.6050 O.2   610  ASG610     -0.2761
     36  C3        26.9300   24.3030   -4.8060 C.3   609  BDP609      0.1149
     37  O3        35.8820   29.9770   -9.1590 O.3   611  GCD611     -0.3848
     38  C2        30.2690   26.8910   -6.8040 C.3   610  ASG610      0.1028
     39  C4        27.0080   23.4390    0.8610 C.3   608  ASG608      0.1459
     40  C2        26.0030   23.9790   -3.6430 C.3   609  BDP609      0.1342
     41  C3        26.4420   22.5920   -0.2580 C.3   608  ASG608      0.1156
     42  O3        31.5380   28.3400   -8.2810 O.3   610  ASG610     -0.3314
     43  N         31.4760   26.4490   -6.1330 N.am  610  ASG610     -0.3053
     44  O6A       31.4980   33.2920   -9.9680 O.2   611  GCD611     -0.2417
     45  O3        25.9690   23.4330   -1.3270 O.3   608  ASG608     -0.3407
     46  C8        23.3150   20.1380   -2.5420 C.3   608  ASG608      0.0122
     47  OSA       27.5070   29.5270  -10.5200 O.2   610  ASG610     -0.1181
     48  C5        28.7050   24.8820   -3.1440 C.3   609  BDP609      0.1863
     49  OSB       29.8980   29.4100  -10.7920 O.3   610  ASG610     -0.2311
     50  C1        25.7950   20.9030    1.4820 C.3   608  ASG608      0.1777
     51  O6B       31.5610   33.6260   -7.6420 O.3   611  GCD611     -0.4750
     52  O5        27.7690   24.6370   -2.0780 O.3   609  BDP609     -0.3315
     53  N         24.8350   20.8440   -0.7690 N.am  608  ASG608     -0.3053
     54  C7        23.6900   21.0840   -1.4080 C.2   608  ASG608      0.2104
     55  S         28.6740   28.6310  -10.5150 S.O2  610  ASG610      0.2079
     56  C1        26.8220   23.5980   -2.4020 C.3   609  BDP609      0.1890
     57  O3        26.1740   24.8230   -5.8920 O.3   609  BDP609     -0.3864
     58  O2        25.1610   22.8920   -3.9990 O.3   609  BDP609     -0.3841
     59  OSB       27.3870   26.2110    0.7150 O.2   608  ASG608     -0.1181
     60  O7        22.9310   22.0080   -1.1180 O.2   608  ASG608     -0.2761
     61 H          29.2573   29.8025   -8.3245 H     610  ASG610      0.0675
     62 H          27.4510   26.2604   -4.1451 H     609  BDP609      0.0655
     63 H          29.3597   27.4452   -4.9679 H     610  ASG610      0.0930
     64 H          28.2904   21.9340    1.5752 H     608  ASG608      0.0648
     65 H          24.5023   22.3692    0.5998 H     608  ASG608      0.0575
     66 H          33.4161   25.5251   -4.8763 H     610  ASG610      0.0322
     67 H          34.1947   24.9153   -6.3168 H     610  ASG610      0.0322
     68 H          33.1174   23.8863   -5.4038 H     610  ASG610      0.0322
     69 H          34.6331   32.5544   -8.3514 H     611  GCD611      0.0637
     70 H          28.4156   29.3991   -6.0761 H     610  ASG610      0.0648
     71 H          32.5987   29.4754   -6.9953 H     611  GCD611      0.1084
     72 H          28.1614   22.6599    4.0153 H     608  ASG608      0.0584
     73 H          27.3320   24.0975    3.4131 H     608  ASG608      0.0584
     74 H          30.7098   28.9624   -6.5236 H     610  ASG610      0.0645
     75 H          26.2832   28.5566   -7.9859 H     610  ASG610      0.0584
     76 H          26.8259   30.2141   -7.7452 H     610  ASG610      0.0584
     77 H          25.7034   28.5251   -5.7580 H     610  ASG610      0.2095
     78 H          24.1992   26.0521    0.2947 H     608  ASG608      0.2469
     79 H          34.8903   30.3917   -7.3858 H     611  GCD611      0.0667
     80 H          29.9474   23.2619    2.6946 H     608  ASG608      0.2095
     81 H          28.3374   27.2017   -2.3217 H     609  BDP609      0.2951
     82 H          33.8277   27.0683   -8.2185 H     611  GCD611      0.2102
     83 H          24.2857   19.6912    1.4026 H     608  ASG608      0.2125
     84 H          33.6506   28.7930   -9.7416 H     611  GCD611      0.0685
     85 H          27.4312   23.4058   -5.1037 H     609  BDP609      0.0648
     86 H          35.6697   29.8691  -10.0993 H     611  GCD611      0.2103
     87 H          30.0633   26.2401   -7.6280 H     610  ASG610      0.0575
     88 H          27.7937   24.0259    0.4331 H     608  ASG608      0.0675
     89 H          25.4106   24.8419   -3.4208 H     609  BDP609      0.0671
     90 H          27.2110   21.9550   -0.6424 H     608  ASG608      0.0645
     91 H          31.8152   26.9452   -5.3533 H     610  ASG610      0.1492
     92 H          24.0805   19.3995   -2.6583 H     608  ASG608      0.0322
     93 H          23.2140   20.6933   -3.4510 H     608  ASG608      0.0322
     94 H          22.3871   19.6569   -2.3130 H     608  ASG608      0.0322
     95 H          29.2400   23.9988   -3.4243 H     609  BDP609      0.0742
     96 H          30.6661   28.8176  -10.7883 H     610  ASG610      0.2469
     97 H          26.5200   20.2016    1.1253 H     608  ASG608      0.0928
     98 H          31.9187   33.3122   -6.8348 H     611  GCD611      0.2955
     99 H          25.3704   20.0540   -1.0108 H     608  ASG608      0.1492
    100 H          27.3502   22.6908   -2.6091 H     609  BDP609      0.0938
    101 H          25.7237   25.6355   -5.6128 H     609  BDP609      0.2100
    102 H          25.7046   22.1139   -4.1989 H     609  BDP609      0.2101
@<TRIPOS>BOND
     1     1     9    1
     2     1    25    2
     3     1    59    2
     4     1    24    1
     5     2     5    1
     6     2    13    1
     7     3    19    1
     8     3    13    1
     9     3     8    1
    10     4    36    1
    11     4    48    1
    12     4    11    1
    13     5    11    1
    14     5    38    1
    15     6    39    1
    16     6    17    1
    17     6    30    1
    18     7    50    1
    19     7    41    1
    20     7    53    1
    21     8    55    1
    22     9    39    1
    23    10    16    1
    24    12    26    1
    25    12    23    2
    26    13    20    1
    27    14    42    1
    28    14    32    1
    29    14    34    1
    30    15    18    2
    31    16    43   am
    32    16    35    2
    33    17    27    1
    34    18    48    1
    35    18    28    1
    36    19    38    1
    37    19    42    1
    38    20    22    1
    39    21    55    2
    40    23    33    1
    41    23    34    1
    42    26    32    1
    43    26    37    1
    44    29    32    1
    45    30    50    1
    46    31    50    1
    47    33    44    2
    48    33    51    1
    49    36    40    1
    50    36    57    1
    51    38    43    1
    52    39    41    1
    53    40    56    1
    54    40    58    1
    55    41    45    1
    56    45    56    1
    57    46    54    1
    58    47    55    2
    59    48    52    1
    60    49    55    1
    61    52    56    1
    62    53    54   am
    63    54    60    2
    64     3    61    1
    65     4    62    1
    66     5    63    1
    67     6    64    1
    68     7    65    1
    69    10    66    1
    70    10    67    1
    71    10    68    1
    72    12    69    1
    73    13    70    1
    74    14    71    1
    75    17    72    1
    76    17    73    1
    77    19    74    1
    78    20    75    1
    79    20    76    1
    80    22    77    1
    81    24    78    1
    82    26    79    1
    83    27    80    1
    84    28    81    1
    85    29    82    1
    86    31    83    1
    87    32    84    1
    88    36    85    1
    89    37    86    1
    90    38    87    1
    91    39    88    1
    92    40    89    1
    93    41    90    1
    94    43    91    1
    95    46    92    1
    96    46    93    1
    97    46    94    1
    98    48    95    1
    99    49    96    1
   100    50    97    1
   101    51    98    1
   102    53    99    1
   103    56   100    1
   104    57   101    1
   105    58   102    1
