@<TRIPOS>MOLECULE
1OFM_LIGAND_1_uncharged.pdb
 100 103 0 0 0
SMALL
GASTEIGER

@<TRIPOS>ATOM
      1  S         26.0200   25.8700    1.1470 S.3   608  ASG608     -0.0004
      2  O5        27.9070   27.3880   -6.4210 O.3   610  ASG610     -0.3411
      3  C4        29.1370   28.8070   -7.9510 C.3   610  ASG610      0.1419
      4  C4        27.9490   25.3440   -4.3840 C.3   609  BDP609      0.1266
      5  C1        29.1030   26.8540   -5.8220 C.3   610  ASG610      0.1808
      6  C5        27.5050   22.5320    1.9880 C.3   608  ASG608      0.1154
      7  C2        25.3030   21.7350    0.2810 C.3   608  ASG608      0.1025
      8  O4        28.7440   27.9620   -9.0550 O.3   610  ASG610     -0.2460
      9  O4        26.0170   24.3040    1.4430 O.3   608  ASG608     -0.2460
     10  C8        33.3010   24.8890   -5.7290 C.3   610  ASG610      0.0122
     11  O4        28.8610   25.5420   -5.4660 O.3   609  BDP609     -0.3403
     12  C4        34.0520   31.7100   -8.4710 C.2   611  GCD611     -0.0042
     13  C5        28.0680   28.7530   -6.8550 C.3   610  ASG610      0.1155
     14  C1        32.4660   29.3370   -8.0480 C.3   611  GCD611      0.2313
     15  O6A       30.9020   25.5820   -2.6390 O.2   609  BDP609     -0.2480
     16  C7        32.1250   25.3740   -6.5700 C.2   610  ASG610      0.2104
     17  C6        28.0380   23.3260    3.1870 C.3   608  ASG608      0.0731
     18  C6        29.6970   25.9150   -2.6410 C.2   609  BDP609      0.3367
     19  C3        30.4550   28.3070   -7.3300 C.3   610  ASG610      0.1165
     20  C6        26.7040   29.2530   -7.2910 C.3   610  ASG610      0.0731
     21  OSC       28.4800   27.5830  -11.5360 O.2   610  ASG610     -0.3452
     22  O6        25.8250   29.3890   -6.1820 O.3   610  ASG610     -0.3924
     23  C5        32.7120   31.7960   -8.6720 C.2   611  GCD611      0.2060
     24  OSC       25.1140   26.2610    0.0490 O.3   608  ASG608     -0.2682
     25  OSA       25.7340   26.5150    2.4450 O.2   608  ASG608     -0.3452
     26  C3        34.6820   30.2680   -8.4280 C.3   611  GCD611      0.1089
     27  O6        29.2900   23.9440    2.9030 O.3   608  ASG608     -0.3924
     28  O6B       29.2580   27.0300   -2.2910 O.3   609  BDP609     -0.4788
     29  O2        34.3780   27.8510   -8.0590 O.3   611  GCD611     -0.3827
     30  O5        26.4010   21.7410    2.4860 O.3   608  ASG608     -0.3413
     31  O1        24.7120   20.2630    2.0600 O.3   608  ASG608     -0.3654
     32  C2        33.7710   29.0110   -8.7010 C.3   611  GCD611      0.1466
     33  C6        31.8640   33.0400   -8.7550 C.2   611  GCD611      0.3717
     34  O5        31.9500   30.5380   -8.8100 O.2   611  GCD611     -0.4539
     35  O7        31.8190   24.7760   -7.6050 O.2   610  ASG610     -0.2761
     36  C3        26.9300   24.3030   -4.8060 C.3   609  BDP609      0.1149
     37  O3        35.8820   29.9770   -9.1590 O.3   611  GCD611     -0.3848
     38  C2        30.2690   26.8910   -6.8040 C.3   610  ASG610      0.1028
     39  C4        27.0080   23.4390    0.8610 C.3   608  ASG608      0.1419
     40  C2        26.0030   23.9790   -3.6430 C.3   609  BDP609      0.1342
     41  C3        26.4420   22.5920   -0.2580 C.3   608  ASG608      0.1155
     42  O3        31.5380   28.3400   -8.2810 O.3   610  ASG610     -0.3314
     43  N         31.4760   26.4490   -6.1330 N.am  610  ASG610     -0.3053
     44  O6A       31.4980   33.2920   -9.9680 O.2   611  GCD611     -0.2417
     45  O3        25.9690   23.4330   -1.3270 O.3   608  ASG608     -0.3407
     46  C8        23.3150   20.1380   -2.5420 C.3   608  ASG608      0.0122
     47  OSA       27.5070   29.5270  -10.5200 O.2   610  ASG610     -0.3452
     48  C5        28.7050   24.8820   -3.1440 C.3   609  BDP609      0.1863
     49  OSB       29.8980   29.4100  -10.7920 O.3   610  ASG610     -0.2682
     50  C1        25.7950   20.9030    1.4820 C.3   608  ASG608      0.1777
     51  O6B       31.5610   33.6260   -7.6420 O.3   611  GCD611     -0.4750
     52  O5        27.7690   24.6370   -2.0780 O.3   609  BDP609     -0.3315
     53  N         24.8350   20.8440   -0.7690 N.am  608  ASG608     -0.3053
     54  C7        23.6900   21.0840   -1.4080 C.2   608  ASG608      0.2104
     55  S         28.6740   28.6310  -10.5150 S.3   610  ASG610     -0.0004
     56  C1        26.8220   23.5980   -2.4020 C.3   609  BDP609      0.1890
     57  O3        26.1740   24.8230   -5.8920 O.3   609  BDP609     -0.3864
     58  O2        25.1610   22.8920   -3.9990 O.3   609  BDP609     -0.3841
     59  OSB       27.3870   26.2110    0.7150 O.2   608  ASG608     -0.3452
     60  O7        22.9310   22.0080   -1.1180 O.2   608  ASG608     -0.2761
     61  H         29.2570   29.8020   -8.3250 H     610  ASG610      0.0673
     62  H         27.4510   26.2600   -4.1450 H     609  BDP609      0.0655
     63  H         29.3600   27.4450   -4.9680 H     610  ASG610      0.0930
     64  H         28.2900   21.9340    1.5750 H     608  ASG608      0.0648
     65  H         24.5020   22.3690    0.6000 H     608  ASG608      0.0575
     66  H         33.4160   25.5250   -4.8760 H     610  ASG610      0.0322
     67  H         34.1950   24.9150   -6.3170 H     610  ASG610      0.0322
     68  H         33.1170   23.8860   -5.4040 H     610  ASG610      0.0322
     69  H         34.6330   32.5540   -8.3510 H     611  GCD611      0.0637
     70  H         28.4160   29.3990   -6.0760 H     610  ASG610      0.0648
     71  H         32.5990   29.4750   -6.9950 H     611  GCD611      0.1084
     72  H         28.1610   22.6600    4.0150 H     608  ASG608      0.0584
     73  H         27.3320   24.0980    3.4130 H     608  ASG608      0.0584
     74  H         30.7100   28.9620   -6.5240 H     610  ASG610      0.0645
     75  H         26.2830   28.5570   -7.9860 H     610  ASG610      0.0584
     76  H         26.8260   30.2140   -7.7450 H     610  ASG610      0.0584
     77  H         25.7030   28.5250   -5.7580 H     610  ASG610      0.2095
     78  H         34.8900   30.3920   -7.3860 H     611  GCD611      0.0667
     79  H         29.9470   23.2620    2.6950 H     608  ASG608      0.2095
     80  H         28.3370   27.2020   -2.3220 H     609  BDP609      0.2951
     81  H         33.8280   27.0680   -8.2190 H     611  GCD611      0.2102
     82  H         24.2860   19.6910    1.4030 H     608  ASG608      0.2125
     83  H         33.6510   28.7930   -9.7420 H     611  GCD611      0.0685
     84  H         27.4310   23.4060   -5.1040 H     609  BDP609      0.0648
     85  H         35.6700   29.8690  -10.0990 H     611  GCD611      0.2103
     86  H         30.0630   26.2400   -7.6280 H     610  ASG610      0.0575
     87  H         27.7940   24.0260    0.4330 H     608  ASG608      0.0673
     88  H         25.4110   24.8420   -3.4210 H     609  BDP609      0.0671
     89  H         27.2110   21.9550   -0.6420 H     608  ASG608      0.0645
     90  H         31.8150   26.9450   -5.3530 H     610  ASG610      0.1492
     91  H         24.0810   19.3990   -2.6580 H     608  ASG608      0.0322
     92  H         23.2140   20.6930   -3.4510 H     608  ASG608      0.0322
     93  H         22.3870   19.6570   -2.3130 H     608  ASG608      0.0322
     94  H         29.2400   23.9990   -3.4240 H     609  BDP609      0.0742
     95  H         26.5200   20.2020    1.1250 H     608  ASG608      0.0928
     96  H         31.9190   33.3120   -6.8350 H     611  GCD611      0.2955
     97  H         25.3700   20.0540   -1.0110 H     608  ASG608      0.1492
     98  H         27.3500   22.6910   -2.6090 H     609  BDP609      0.0938
     99  H         25.7240   25.6360   -5.6130 H     609  BDP609      0.2100
    100  H         25.7050   22.1140   -4.1990 H     609  BDP609      0.2101
@<TRIPOS>BOND
     1     1     9    1
     2     1    25    2
     3     1    59    2
     4     1    24    1
     5     2     5    1
     6     2    13    1
     7     3    19    1
     8     3    13    1
     9     3     8    1
    10     3    61    1
    11     4    36    1
    12     4    48    1
    13     4    11    1
    14     4    62    1
    15     5    11    1
    16     5    38    1
    17     5    63    1
    18     6    39    1
    19     6    17    1
    20     6    30    1
    21     6    64    1
    22     7    50    1
    23     7    41    1
    24     7    53    1
    25     7    65    1
    26     8    55    1
    27     9    39    1
    28    10    16    1
    29    10    66    1
    30    10    67    1
    31    10    68    1
    32    12    26    1
    33    12    23    2
    34    12    69    1
    35    13    20    1
    36    13    70    1
    37    14    42    1
    38    14    32    1
    39    14    34    1
    40    14    71    1
    41    15    18    2
    42    16    43   am
    43    16    35    2
    44    17    27    1
    45    17    72    1
    46    17    73    1
    47    18    48    1
    48    18    28    1
    49    19    38    1
    50    19    42    1
    51    19    74    1
    52    20    22    1
    53    20    75    1
    54    20    76    1
    55    21    55    2
    56    22    77    1
    57    23    33    1
    58    23    34    1
    59    26    32    1
    60    26    37    1
    61    26    78    1
    62    27    79    1
    63    28    80    1
    64    29    32    1
    65    29    81    1
    66    30    50    1
    67    31    50    1
    68    31    82    1
    69    32    83    1
    70    33    44    2
    71    33    51    1
    72    36    40    1
    73    36    57    1
    74    36    84    1
    75    37    85    1
    76    38    43    1
    77    38    86    1
    78    39    41    1
    79    39    87    1
    80    40    56    1
    81    40    58    1
    82    40    88    1
    83    41    45    1
    84    41    89    1
    85    43    90    1
    86    45    56    1
    87    46    54    1
    88    46    91    1
    89    46    92    1
    90    46    93    1
    91    47    55    2
    92    48    52    1
    93    48    94    1
    94    49    55    1
    95    50    95    1
    96    51    96    1
    97    52    56    1
    98    53    54   am
    99    53    97    1
   100    54    60    2
   101    56    98    1
   102    57    99    1
   103    58   100    1
