@<TRIPOS>MOLECULE
1OJM_LIGAND_1_uncharged.pdb
 47 48 0 0 0
SMALL
GASTEIGER

@<TRIPOS>ATOM
      1  C1         9.8080   40.8360   30.4030 C.3   901  NGA901      0.1776
      2  O4         8.1390   43.8130   31.5080 O.3   901  NGA901     -0.3865
      3  C1         5.1660   41.4690   29.9610 C.3   900  GCD900      0.2313
      4  O3         6.2460   41.9520   30.7210 O.3   901  NGA901     -0.3315
      5  C4         2.7910   41.3950   28.2920 C.2   900  GCD900     -0.0042
      6  C4         8.2460   43.3620   30.2020 C.3   901  NGA901      0.1116
      7  O1        10.5770   39.9100   31.1530 O.3   901  NGA901     -0.3654
      8  O6        11.7800   44.5050   29.3450 O.3   901  NGA901     -0.3924
      9  C5         3.8530   42.1200   27.8390 C.2   900  GCD900      0.2060
     10  O6B        5.0040   43.4120   26.3130 O.2   900  GCD900     -0.2417
     11  C6         4.0230   42.5970   26.4210 C.2   900  GCD900      0.3717
     12  C2         8.3860   40.9200   30.9820 C.3   901  NGA901      0.1025
     13  N2         7.6450   39.5870   30.9410 N.am  901  NGA901     -0.3053
     14  O7         7.1850   39.6940   33.2780 O.2   901  NGA901     -0.2761
     15  O5        10.4400   42.1990   30.4320 O.3   901  NGA901     -0.3414
     16  C8         6.3480   37.7870   31.9900 C.3   901  NGA901      0.0122
     17  O5         4.9760   42.4550   28.8070 O.2   900  GCD900     -0.4539
     18  O3         1.5640   41.1610   30.5310 O.3   900  GCD900     -0.3848
     19  O6A        3.2000   42.1430   25.5430 O.3   900  GCD900     -0.4750
     20  C6        10.3620   44.5920   29.6820 C.3   901  NGA901      0.0730
     21  C5         9.6570   43.2390   29.6340 C.3   901  NGA901      0.1130
     22  O2         4.0080   40.5870   31.8800 O.3   900  GCD900     -0.3827
     23  C3         2.7630   40.9880   29.7800 C.3   900  GCD900      0.1089
     24  C2         3.8990   41.5120   30.7430 C.3   900  GCD900      0.1466
     25  C7         7.0890   39.1000   32.1670 C.2   901  NGA901      0.2104
     26  C3         7.5750   41.9430   30.1650 C.3   901  NGA901      0.1140
     27  H          9.7660   40.4970   29.3890 H     901  NGA901      0.0928
     28  H          7.2030   43.8510   31.7610 H     901  NGA901      0.2100
     29  H          5.3700   40.4650   29.6540 H     900  GCD900      0.1084
     30  H          2.0250   41.1250   27.6550 H     900  GCD900      0.0637
     31  H          7.7750   44.1010   29.5890 H     901  NGA901      0.0647
     32  H         10.6250   40.2030   32.0770 H     901  NGA901      0.2125
     33  H         12.1780   45.3880   29.3910 H     901  NGA901      0.2095
     34  H          8.4820   41.2100   32.0080 H     901  NGA901      0.0575
     35  H          7.5530   39.0800   30.1020 H     901  NGA901      0.1492
     36  H          6.4040   37.4810   30.9660 H     901  NGA901      0.0322
     37  H          5.3230   37.9160   32.2690 H     901  NGA901      0.0322
     38  H          6.7950   37.0390   32.6100 H     901  NGA901      0.0322
     39  H          0.8070   40.8590   30.0050 H     900  GCD900      0.2103
     40  H          2.5280   41.5420   25.7980 H     900  GCD900      0.2955
     41  H          9.8850   45.2510   28.9860 H     901  NGA901      0.0584
     42  H         10.2920   44.9560   30.6860 H     901  NGA901      0.0584
     43  H          9.6020   42.9240   28.6130 H     901  NGA901      0.0647
     44  H          4.7030   40.8950   32.4820 H     900  GCD900      0.2102
     45  H          2.9120   39.9580   29.5320 H     900  GCD900      0.0667
     46  H          3.6950   42.4990   31.1030 H     900  GCD900      0.0685
     47  H          7.5400   41.6720   29.1300 H     901  NGA901      0.0644
@<TRIPOS>BOND
     1     1    12    1
     2     1     7    1
     3     1    15    1
     4     1    27    1
     5     2     6    1
     6     2    28    1
     7     3    24    1
     8     3    17    1
     9     3     4    1
    10     3    29    1
    11     4    26    1
    12     5    23    1
    13     5     9    2
    14     5    30    1
    15     6    26    1
    16     6    21    1
    17     6    31    1
    18     7    32    1
    19     8    20    1
    20     8    33    1
    21     9    17    1
    22     9    11    1
    23    10    11    2
    24    11    19    1
    25    12    26    1
    26    12    13    1
    27    12    34    1
    28    13    25   am
    29    13    35    1
    30    14    25    2
    31    15    21    1
    32    16    25    1
    33    16    36    1
    34    16    37    1
    35    16    38    1
    36    18    23    1
    37    18    39    1
    38    19    40    1
    39    20    21    1
    40    20    41    1
    41    20    42    1
    42    21    43    1
    43    22    24    1
    44    22    44    1
    45    23    24    1
    46    23    45    1
    47    24    46    1
    48    26    47    1
