@<TRIPOS>MOLECULE
1OJM_LIGAND_1.pdb
 47 48 0 0 0
SMALL
GASTEIGER

@<TRIPOS>ATOM
      1  C1         9.8080   40.8360   30.4030 C.3   901  NGA901      0.1776
      2  O4         8.1390   43.8130   31.5080 O.3   901  NGA901     -0.3865
      3  C1         5.1660   41.4690   29.9610 C.3   900  GCD900      0.2313
      4  O3         6.2460   41.9520   30.7210 O.3   901  NGA901     -0.3315
      5  C4         2.7910   41.3950   28.2920 C.2   900  GCD900     -0.0042
      6  C4         8.2460   43.3620   30.2020 C.3   901  NGA901      0.1116
      7  O1        10.5770   39.9100   31.1530 O.3   901  NGA901     -0.3654
      8  O6        11.7800   44.5050   29.3450 O.3   901  NGA901     -0.3924
      9  C5         3.8530   42.1200   27.8390 C.2   900  GCD900      0.2060
     10  O6B        5.0040   43.4120   26.3130 O.2   900  GCD900     -0.2417
     11  C6         4.0230   42.5970   26.4210 C.2   900  GCD900      0.3717
     12  C2         8.3860   40.9200   30.9820 C.3   901  NGA901      0.1025
     13  N2         7.6450   39.5870   30.9410 N.am  901  NGA901     -0.3053
     14  O7         7.1850   39.6940   33.2780 O.2   901  NGA901     -0.2761
     15  O5        10.4400   42.1990   30.4320 O.3   901  NGA901     -0.3414
     16  C8         6.3480   37.7870   31.9900 C.3   901  NGA901      0.0122
     17  O5         4.9760   42.4550   28.8070 O.2   900  GCD900     -0.4539
     18  O3         1.5640   41.1610   30.5310 O.3   900  GCD900     -0.3848
     19  O6A        3.2000   42.1430   25.5430 O.3   900  GCD900     -0.4750
     20  C6        10.3620   44.5920   29.6820 C.3   901  NGA901      0.0730
     21  C5         9.6570   43.2390   29.6340 C.3   901  NGA901      0.1130
     22  O2         4.0080   40.5870   31.8800 O.3   900  GCD900     -0.3827
     23  C3         2.7630   40.9880   29.7800 C.3   900  GCD900      0.1089
     24  C2         3.8990   41.5120   30.7430 C.3   900  GCD900      0.1466
     25  C7         7.0890   39.1000   32.1670 C.2   901  NGA901      0.2104
     26  C3         7.5750   41.9430   30.1650 C.3   901  NGA901      0.1140
     27 H           9.7663   40.4974   29.3889 H     901  NGA901      0.0928
     28 H           7.2034   43.8514   31.7612 H     901  NGA901      0.2100
     29 H           5.3702   40.4646   29.6537 H     900  GCD900      0.1084
     30 H           2.0249   41.1251   27.6554 H     900  GCD900      0.0637
     31 H           7.7747   44.1013   29.5887 H     901  NGA901      0.0647
     32 H          10.6249   40.2026   32.0766 H     901  NGA901      0.2125
     33 H          12.1780   45.3884   29.3906 H     901  NGA901      0.2095
     34 H           8.4821   41.2100   32.0075 H     901  NGA901      0.0575
     35 H           7.5526   39.0802   30.1020 H     901  NGA901      0.1492
     36 H           6.4035   37.4813   30.9661 H     901  NGA901      0.0322
     37 H           5.3230   37.9155   32.2688 H     901  NGA901      0.0322
     38 H           6.7952   37.0386   32.6104 H     901  NGA901      0.0322
     39 H           0.8068   40.8594   30.0052 H     900  GCD900      0.2103
     40 H           2.5279   41.5418   25.7976 H     900  GCD900      0.2955
     41 H           9.8853   45.2505   28.9862 H     901  NGA901      0.0584
     42 H          10.2918   44.9557   30.6858 H     901  NGA901      0.0584
     43 H           9.6019   42.9239   28.6129 H     901  NGA901      0.0647
     44 H           4.7030   40.8954   32.4822 H     900  GCD900      0.2102
     45 H           2.9117   39.9578   29.5322 H     900  GCD900      0.0667
     46 H           3.6945   42.4986   31.1031 H     900  GCD900      0.0685
     47 H           7.5404   41.6725   29.1303 H     901  NGA901      0.0644
@<TRIPOS>BOND
     1     1    12    1
     2     1     7    1
     3     1    15    1
     4     2     6    1
     5     3    24    1
     6     3    17    1
     7     3     4    1
     8     4    26    1
     9     5    23    1
    10     5     9    2
    11     6    26    1
    12     6    21    1
    13     8    20    1
    14     9    17    1
    15     9    11    1
    16    10    11    2
    17    11    19    1
    18    12    26    1
    19    12    13    1
    20    13    25   am
    21    14    25    2
    22    15    21    1
    23    16    25    1
    24    18    23    1
    25    20    21    1
    26    22    24    1
    27    23    24    1
    28     1    27    1
    29     2    28    1
    30     3    29    1
    31     5    30    1
    32     6    31    1
    33     7    32    1
    34     8    33    1
    35    12    34    1
    36    13    35    1
    37    16    36    1
    38    16    37    1
    39    16    38    1
    40    18    39    1
    41    19    40    1
    42    20    41    1
    43    20    42    1
    44    21    43    1
    45    22    44    1
    46    23    45    1
    47    24    46    1
    48    26    47    1
