@<TRIPOS>MOLECULE
1RID_LIGAND_2_uncharged.pdb
 206 213 0 0 0
SMALL
GASTEIGER

@<TRIPOS>ATOM
      1  C2        46.3040   -5.4830  115.9030 C.3   252  SGN252      0.1079
      2  O3S       49.4550   -3.8440  107.7310 O.2   249  IDS249     -0.3452
      3  S1        48.5390    6.0770   96.1370 S.3   246  SGN246      0.0767
      4  C1        45.7390   -5.9590  117.2630 C.3   252  SGN252      0.1762
      5  O62       43.3480    0.5250  104.4200 O.2   249  IDS249     -0.2480
      6  O5        45.2180   -0.4150  106.4860 O.3   249  IDS249     -0.3314
      7  C2        47.6850    2.5460  100.1090 C.3   247  IDS247      0.1644
      8  O3S       44.5490    4.6670  112.8720 O.3   250  SGN250     -0.0534
      9  O6        42.9780    0.6550  100.3350 O.3   248  SGN248     -0.2520
     10  O5        47.5110    0.3440   99.0030 O.3   247  IDS247     -0.3314
     11  C4        45.2650    0.6290  113.7310 C.3   251  IDS251      0.1267
     12  O2S       46.9560   -2.1130   92.1430 O.2   245  IDS245     -0.3452
     13  O2        46.8040    3.6580  100.3750 O.3   247  IDS247     -0.2435
     14  O5        43.6200   -1.1820  102.2180 O.3   248  SGN248     -0.3413
     15  O6S       51.6810    0.0410  109.5110 O.2   250  SGN250     -0.3452
     16  O2S       48.7240   -1.9280  106.4650 O.2   249  IDS249     -0.3452
     17  O1        46.2710   -5.1170  118.3100 O.3   252  SGN252     -0.3656
     18  O1S       48.2540   -4.1370  105.6530 O.3   249  IDS249     -0.2682
     19  C2        49.2180    3.5630   95.4470 C.3   246  SGN246      0.1081
     20  O2        47.0560   -3.3450  107.6220 O.3   249  IDS249     -0.2435
     21  O1S       46.7880   -5.7660  101.2940 O.3   248  SGN248     -0.0534
     22  S2        41.9640    1.4370   99.4630 S.3   248  SGN248     -0.0008
     23  S         48.4650   -3.3010  106.8260 S.3   249  IDS249     -0.0004
     24  O5        44.2840   -5.9020  117.2480 O.3   252  SGN252     -0.3416
     25  O1S       47.8690   -8.0420  115.6910 O.3   252  SGN252     -0.0534
     26  C3        46.4810   -1.5110  101.9220 C.3   248  SGN248      0.1055
     27  O3S       49.6770    6.7820   96.6890 O.3   246  SGN246     -0.0534
     28  N         43.8410    2.7150  111.5400 N.3   250  SGN250     -0.1775
     29  O62       44.0860    5.3610   90.4860 O.2   245  IDS245     -0.2481
     30  C4        48.4200    2.0990   93.6390 C.3   246  SGN246      0.1176
     31  C6        48.3670   -0.3600  109.6890 C.3   250  SGN250      0.1035
     32  O5S       50.8540    2.2150  108.9110 O.2   250  SGN250     -0.3452
     33  O5        46.0580    3.1430   91.5460 O.3   245  IDS245     -0.3340
     34  O62       48.2130   -0.2880  114.6490 O.2   251  IDS251     -0.2480
     35  C3        48.5140    2.9020   98.8900 C.3   247  IDS247      0.1174
     36  O3S       46.5910   -1.8240   89.7650 O.2   245  IDS245     -0.3452
     37  C1        46.8530    1.2710   99.8710 C.3   247  IDS247      0.1915
     38  O1        45.7630    0.6680  112.4530 O.3   250  SGN250     -0.3406
     39  S1        48.5600   -6.8450  115.2460 S.3   252  SGN252      0.0767
     40  C5        47.0740    0.1360  110.3480 C.3   250  SGN250      0.1158
     41  C6        43.0370   -0.0050  105.4720 C.2   249  IDS249      0.3367
     42  C3        47.1490    1.5020   89.3340 C.3   245  IDS245      0.0912
     43  O4S       39.8080   -3.5520  114.9540 O.2   252  SGN252     -0.3452
     44  O61       45.8040    5.5640   89.2970 O.3   245  IDS245     -0.4788
     45  N         47.7930   -5.5420  115.9390 N.3   252  SGN252     -0.1775
     46  C6        42.2130   -4.7190  117.0940 C.3   252  SGN252      0.1035
     47  O1        44.7260   -1.7740  104.0820 O.3   248  SGN248     -0.3406
     48  O62       48.7610   -1.6260   97.7140 O.2   247  IDS247     -0.2480
     49  O5S       52.7550    0.8010   91.2630 O.2   246  SGN246     -0.3452
     50  O3        46.3380   -3.6310  114.4520 O.3   252  SGN252     -0.3874
     51  C6        43.6290    1.1270  101.4760 C.3   248  SGN248      0.1035
     52  C2        45.5410   -2.7190  102.0620 C.3   248  SGN248      0.1081
     53  O1S       41.2970   -0.8600  111.6850 O.2   251  IDS251     -0.3452
     54  N         48.8270    4.5000   96.5000 N.3   246  SGN246     -0.1775
     55  O3        47.6190   -1.8830  101.1580 O.3   248  SGN248     -0.3874
     56  O61       41.9640    0.3160  105.9830 O.3   249  IDS249     -0.4788
     57  C3        43.7300    0.4970  113.5810 C.3   251  IDS251      0.1174
     58  C3        45.8260   -4.0530  115.6730 C.3   252  SGN252      0.1055
     59  O3        43.1230    1.7370  113.8910 O.3   251  IDS251     -0.3863
     60  O4S       50.2270    0.3100  107.5760 O.3   250  SGN250     -0.2682
     61  O1        46.6270    0.7270  101.1220 O.3   247  IDS247     -0.3401
     62  O6S       39.4010   -5.3420  116.5510 O.2   252  SGN252     -0.3452
     63  O3        43.6320    1.1460  109.1200 O.3   250  SGN250     -0.3874
     64  O1S       46.7660    5.6920  101.7010 O.2   247  IDS247     -0.3452
     65  O4S       42.4530    1.3930   98.0970 O.2   248  SGN248     -0.3452
     66  O2        47.7120   -0.0830   91.0030 O.3   245  IDS245     -0.2436
     67  O1S       43.8250    5.0820  110.6170 O.3   250  SGN250     -0.0534
     68  S         40.9650   -1.5190  112.9400 S.3   251  IDS251     -0.0004
     69  O6        41.6760   -4.8970  115.8010 O.3   252  SGN252     -0.2520
     70  S2        50.6020    0.7980  108.8950 S.3   250  SGN250     -0.0008
     71  O2        41.7050   -0.6430  114.0820 O.3   251  IDS251     -0.2435
     72  O6S       52.7850    0.9020   93.6550 O.2   246  SGN246     -0.3452
     73  C5        43.7390   -4.5910  116.9900 C.3   252  SGN252      0.1158
     74  O3S       39.5600   -1.4320  113.2650 O.3   251  IDS251     -0.2682
     75  S2        52.2820    0.2210   92.4950 S.3   246  SGN246     -0.0008
     76  C6        49.5060   -0.8560   98.2910 C.2   247  IDS247      0.3367
     77  O1S       48.8270   -2.1620   90.6180 O.3   245  IDS245     -0.2682
     78  C5        45.8360   -0.7090  114.2920 C.3   251  IDS251      0.1863
     79  C1        43.7520   -1.9940  114.1800 C.3   251  IDS251      0.1915
     80  O3S       46.3100    5.8590   99.3260 O.2   247  IDS247     -0.3452
     81  C5        49.2390    0.9050   94.2930 C.3   246  SGN246      0.1158
     82  S         47.1390    5.2500  100.3700 S.3   247  IDS247     -0.0004
     83  O6S       41.9210    2.7810  100.0080 O.3   248  SGN248     -0.2682
     84  C1        47.0880    2.1450   91.6540 C.3   245  IDS245      0.1913
     85  C4        49.4380    1.7570   98.4040 C.3   247  IDS247      0.1267
     86  C4        44.2680   -2.2940  105.2760 C.3   249  IDS249      0.1267
     87  C6        45.0810    4.8500   89.9850 C.2   245  IDS245      0.3341
     88  C2        45.0410    2.2290  110.7880 C.3   250  SGN250      0.1081
     89  O6        50.7630    0.4830   92.4750 O.3   246  SGN246     -0.2520
     90  O5S       40.0920   -5.8710  114.2860 O.3   252  SGN252     -0.2682
     91  C5        48.9610    0.3820   99.0270 C.3   247  IDS247      0.1863
     92  C6        49.7910   -0.1260   93.2810 C.3   246  SGN246      0.1035
     93  O2S       42.1900    4.4310  112.3210 O.3   250  SGN250     -0.0534
     94  S1        43.5770    4.3340  111.8390 S.3   250  SGN250      0.0767
     95  O6        49.3620    0.6100  109.8270 O.3   250  SGN250     -0.2520
     96  O1        45.5670   -0.8610  108.7160 O.3   249  IDS249     -0.3401
     97  O1        47.2500    1.6410   92.9560 O.3   245  IDS245     -0.3401
     98  C2        46.8310    0.9990   90.7110 C.3   245  IDS245      0.1620
     99  O3S       44.5650   -5.5140  102.1350 O.3   248  SGN248     -0.0534
    100  C2        45.8300   -2.6670  107.2790 C.3   249  IDS249      0.1644
    101  C4        45.9160    0.3720  109.3190 C.3   250  SGN250      0.1176
    102  O5        45.0800   -1.8080  113.6670 O.3   251  IDS251     -0.3314
    103  S         47.4940   -1.6380   90.8790 S.3   245  IDS245     -0.0004
    104  O3S       49.9370   -6.7960  115.7330 O.3   252  SGN252     -0.0534
    105  O2S       48.5580    5.3980  100.1280 O.3   247  IDS247     -0.2682
    106  C5        45.4130    3.3440   90.1870 C.3   245  IDS245      0.1603
    107  C1        50.0330    2.3470   96.0700 C.3   246  SGN246      0.1795
    108  C4        45.7380   -0.3790  101.2150 C.3   248  SGN248      0.1176
    109  O4S       52.4580   -1.2050   92.5560 O.3   246  SGN246     -0.2682
    110  O5S       40.7190    0.7150   99.6430 O.2   248  SGN248     -0.3452
    111  O1        43.7410   -2.6720  115.4490 O.3   251  IDS251     -0.3401
    112  S2        40.1500   -4.9030  115.3770 S.3   252  SGN252     -0.0008
    113  C6        47.3670   -0.9000  114.0180 C.2   251  IDS251      0.3367
    114  O1S       48.4770    6.1870   94.6930 O.3   246  SGN246     -0.0534
    115  O5        50.3970    1.4320   95.0380 O.3   246  SGN246     -0.3413
    116  C4        46.2790    2.7380   88.9680 C.3   245  IDS245      0.0128
    117  O3        45.2800   -4.4560  105.8030 O.3   249  IDS249     -0.3863
    118  C3        44.6700    0.9060  110.0590 C.3   250  SGN250      0.1055
    119  O3        49.2980    4.0560   99.1760 O.3   247  IDS247     -0.3863
    120  C1        44.2840   -2.2580  102.8750 C.3   248  SGN248      0.1795
    121  O3        46.9080    0.4810   88.3960 O.3   245  IDS245     -0.3889
    122  O61       50.7020   -1.0900   98.2550 O.3   247  IDS247     -0.4788
    123  S1        45.9780   -5.4060  102.4390 S.3   248  SGN248      0.0767
    124  O3        47.2470    4.0980   94.1550 O.3   246  SGN246     -0.3874
    125  C1        45.9960   -1.1310  107.4340 C.3   249  IDS249      0.1915
    126  O2S       46.3330   -6.1240  103.6580 O.3   248  SGN248     -0.0534
    127  C3        45.4920   -3.0520  105.8580 C.3   249  IDS249      0.1174
    128  C1        46.1990    1.8390  111.7890 C.3   250  SGN250      0.1795
    129  C4        44.2560   -4.0480  115.6180 C.3   252  SGN252      0.1176
    130  C5        43.9530   -1.0380  106.1600 C.3   249  IDS249      0.1863
    131  O61       47.7590   -1.6730  113.1380 O.3   251  IDS251     -0.4788
    132  O2S       48.4800   -6.6440  113.8170 O.3   252  SGN252     -0.0534
    133  O2S       47.2970    6.4440   96.7900 O.3   246  SGN246     -0.0534
    134  O2S       41.4800   -2.8760  112.9980 O.2   251  IDS251     -0.3452
    135  C2        43.0900   -0.6080  114.4340 C.3   251  IDS251      0.1644
    136  C5        44.4820   -0.0010  102.0780 C.3   248  SGN248      0.1158
    137  O5        47.3560    1.4030  111.0550 O.3   250  SGN250     -0.3413
    138  C3        47.9690    3.0310   94.7300 C.3   246  SGN246      0.1055
    139  N         46.2530   -3.8120  102.7830 N.3   248  SGN248     -0.1775
    140  O1        49.2280    1.6410   96.9990 O.3   246  SGN246     -0.3406
    141  H         45.9640   -6.1090  115.1050 H     252  SGN252      0.0554
    142  H         46.0290   -6.9730  117.4420 H     252  SGN252      0.0925
    143  H         48.3330    2.3550  100.9390 H     247  IDS247      0.0698
    144  H         45.5070    1.4710  114.3460 H     251  IDS251      0.0656
    145  H         46.0090   -4.1970  118.1490 H     252  SGN252      0.2125
    146  H         49.8390    4.0770   94.7430 H     246  SGN246      0.0554
    147  H         46.7970   -1.1840  102.8910 H     248  SGN248      0.0638
    148  H         43.8720    2.2580  112.4510 H     250  SGN250      0.1487
    149  H         49.0640    2.5820   92.9340 H     246  SGN246      0.0650
    150  H         48.1900   -0.5440  108.6500 H     250  SGN250      0.0610
    151  H         48.6840   -1.2660  110.1630 H     250  SGN250      0.0610
    152  H         47.8230    3.0900   98.0950 H     247  IDS247      0.0649
    153  H         45.9350    1.5060   99.3740 H     247  IDS247      0.0939
    154  H         46.7460   -0.6250  111.0240 H     250  SGN250      0.0648
    155  H         48.1790    1.7930   89.3170 H     245  IDS245      0.0622
    156  H         46.5730    5.2070   88.8990 H     245  IDS245      0.2951
    157  H         48.0700   -5.5180  116.9200 H     252  SGN252      0.1487
    158  H         41.8080   -3.8300  117.5310 H     252  SGN252      0.0610
    159  H         41.9620   -5.5590  117.7070 H     252  SGN252      0.0610
    160  H         47.3070   -3.6350  114.4890 H     252  SGN252      0.2100
    161  H         42.9040    1.4490  102.1940 H     248  SGN248      0.0610
    162  H         44.2590    1.9510  101.2140 H     248  SGN248      0.0610
    163  H         45.2390   -3.0840  101.1030 H     248  SGN248      0.0554
    164  H         47.9710    4.1330   96.9160 H     246  SGN246      0.1487
    165  H         47.3360   -2.1800  100.2790 H     248  SGN248      0.2100
    166  H         41.6950   -0.0730  106.7920 H     249  IDS249      0.2951
    167  H         43.5600    0.2140  112.5630 H     251  IDS251      0.0649
    168  H         46.1530   -3.4040  116.4580 H     252  SGN252      0.0638
    169  H         43.2980    1.9600  114.8190 H     251  IDS251      0.2100
    170  H         42.8480    1.4820  109.5830 H     250  SGN250      0.2100
    171  H         44.0620   -3.8620  117.7040 H     252  SGN252      0.0648
    172  H         45.7280   -0.6980  115.3560 H     251  IDS251      0.0742
    173  H         43.2300   -2.5760  113.4500 H     251  IDS251      0.0939
    174  H         48.5330    0.4070   94.9240 H     246  SGN246      0.0648
    175  H         47.9960    2.6460   91.3890 H     245  IDS245      0.0939
    176  H         50.4530    1.9620   98.6740 H     247  IDS247      0.0656
    177  H         43.4140   -2.9350  105.2070 H     249  IDS249      0.0656
    178  H         45.3490    3.0050  110.1180 H     250  SGN250      0.0554
    179  H         49.3470    0.3390  100.0240 H     247  IDS247      0.0742
    180  H         48.9920   -0.4850   92.6660 H     246  SGN246      0.0610
    181  H         50.2300   -0.9450   93.8110 H     246  SGN246      0.0610
    182  H         45.8200    0.6580   90.7990 H     245  IDS245      0.0697
    183  H         45.0340   -2.9540  107.9340 H     249  IDS249      0.0698
    184  H         46.2430    1.0740  108.5810 H     250  SGN250      0.0650
    185  H         44.5020    2.7840   90.1750 H     245  IDS245      0.0715
    186  H         50.9020    2.7420   96.5540 H     246  SGN246      0.0927
    187  H         45.4160   -0.6660  100.2360 H     248  SGN248      0.0650
    188  H         45.6020    2.4500   88.1910 H     245  IDS245      0.0321
    189  H         46.9610    3.5080   88.6720 H     245  IDS245      0.0321
    190  H         45.0620   -4.7150  104.8940 H     249  IDS249      0.2100
    191  H         44.3340    0.1860  110.7760 H     250  SGN250      0.0638
    192  H         49.9140    3.8580   99.8990 H     247  IDS247      0.2100
    193  H         43.6140   -3.0860  102.9780 H     248  SGN248      0.0927
    194  H         45.9710    0.2300   88.4250 H     245  IDS245      0.2099
    195  H         51.3040   -0.5180   98.6880 H     247  IDS247      0.2951
    196  H         46.9530    4.7030   94.8540 H     246  SGN246      0.2100
    197  H         47.0080   -0.8280  107.2640 H     249  IDS249      0.0939
    198  H         46.3220   -2.7670  105.2450 H     249  IDS249      0.0649
    199  H         46.4220    2.6710  112.4240 H     250  SGN250      0.0927
    200  H         43.9250   -4.6460  114.7950 H     252  SGN252      0.0650
    201  H         43.4210   -1.3690  107.0280 H     249  IDS249      0.0742
    202  H         47.1390   -2.1600  112.6320 H     251  IDS251      0.2951
    203  H         43.2270   -0.3980  115.4740 H     251  IDS251      0.0698
    204  H         44.8610    0.3440  103.0170 H     248  SGN248      0.0648
    205  H         47.3370    2.5240   95.4290 H     246  SGN246      0.0638
    206  H         46.0360   -3.6910  103.7720 H     248  SGN248      0.1487
@<TRIPOS>BOND
     1     1     4    1
     2     1    58    1
     3     1    45    1
     4     1   141    1
     5     2    23    2
     6     3    54    1
     7     3   114    1
     8     3   133    1
     9     3    27    1
    10     4    17    1
    11     4    24    1
    12     4   142    1
    13     5    41    2
    14     6   125    1
    15     6   130    1
    16     7    37    1
    17     7    35    1
    18     7    13    1
    19     7   143    1
    20     8    94    1
    21     9    51    1
    22     9    22    1
    23    10    37    1
    24    10    91    1
    25    11    38    1
    26    11    57    1
    27    11    78    1
    28    11   144    1
    29    12   103    2
    30    13    82    1
    31    14   120    1
    32    14   136    1
    33    15    70    2
    34    16    23    2
    35    17   145    1
    36    18    23    1
    37    19   107    1
    38    19   138    1
    39    19    54    1
    40    19   146    1
    41    20   100    1
    42    20    23    1
    43    21   123    1
    44    22    65    2
    45    22   110    2
    46    22    83    1
    47    24    73    1
    48    25    39    1
    49    26    52    1
    50    26   108    1
    51    26    55    1
    52    26   147    1
    53    28    88    1
    54    28    94    1
    55    28   148    1
    56    29    87    2
    57    30    97    1
    58    30   138    1
    59    30    81    1
    60    30   149    1
    61    31    40    1
    62    31    95    1
    63    31   150    1
    64    31   151    1
    65    32    70    2
    66    33    84    1
    67    33   106    1
    68    34   113    2
    69    35    85    1
    70    35   119    1
    71    35   152    1
    72    36   103    2
    73    37    61    1
    74    37   153    1
    75    38   128    1
    76    39    45    1
    77    39   132    1
    78    39   104    1
    79    40   101    1
    80    40   137    1
    81    40   154    1
    82    41   130    1
    83    41    56    1
    84    42    98    1
    85    42   116    1
    86    42   121    1
    87    42   155    1
    88    43   112    2
    89    44    87    1
    90    44   156    1
    91    45   157    1
    92    46    73    1
    93    46    69    1
    94    46   158    1
    95    46   159    1
    96    47   120    1
    97    47    86    1
    98    48    76    2
    99    49    75    2
   100    50    58    1
   101    50   160    1
   102    51   136    1
   103    51   161    1
   104    51   162    1
   105    52   120    1
   106    52   139    1
   107    52   163    1
   108    53    68    2
   109    54   164    1
   110    55   165    1
   111    56   166    1
   112    57   135    1
   113    57    59    1
   114    57   167    1
   115    58   129    1
   116    58   168    1
   117    59   169    1
   118    60    70    1
   119    61   108    1
   120    62   112    2
   121    63   118    1
   122    63   170    1
   123    64    82    2
   124    66    98    1
   125    66   103    1
   126    67    94    1
   127    68    71    1
   128    68   134    2
   129    68    74    1
   130    69   112    1
   131    70    95    1
   132    71   135    1
   133    72    75    2
   134    73   129    1
   135    73   171    1
   136    75    89    1
   137    75   109    1
   138    76    91    1
   139    76   122    1
   140    77   103    1
   141    78   113    1
   142    78   102    1
   143    78   172    1
   144    79   135    1
   145    79   111    1
   146    79   102    1
   147    79   173    1
   148    80    82    2
   149    81    92    1
   150    81   115    1
   151    81   174    1
   152    82   105    1
   153    84    98    1
   154    84    97    1
   155    84   175    1
   156    85   140    1
   157    85    91    1
   158    85   176    1
   159    86   127    1
   160    86   130    1
   161    86   177    1
   162    87   106    1
   163    88   128    1
   164    88   118    1
   165    88   178    1
   166    89    92    1
   167    90   112    1
   168    91   179    1
   169    92   180    1
   170    92   181    1
   171    93    94    1
   172    96   125    1
   173    96   101    1
   174    98   182    1
   175    99   123    1
   176   100   125    1
   177   100   127    1
   178   100   183    1
   179   101   118    1
   180   101   184    1
   181   106   116    1
   182   106   185    1
   183   107   140    1
   184   107   115    1
   185   107   186    1
   186   108   136    1
   187   108   187    1
   188   111   129    1
   189   113   131    1
   190   116   188    1
   191   116   189    1
   192   117   127    1
   193   117   190    1
   194   118   191    1
   195   119   192    1
   196   120   193    1
   197   121   194    1
   198   122   195    1
   199   123   139    1
   200   123   126    1
   201   124   138    1
   202   124   196    1
   203   125   197    1
   204   127   198    1
   205   128   137    1
   206   128   199    1
   207   129   200    1
   208   130   201    1
   209   131   202    1
   210   135   203    1
   211   136   204    1
   212   138   205    1
   213   139   206    1
