@<TRIPOS>MOLECULE
1RID_LIGAND_1_uncharged.pdb
 197 204 0 0 0
SMALL
GASTEIGER

@<TRIPOS>ATOM
      1  C3        48.6110   26.2160   -0.9940 C.3   251  IDS251      0.1174
      2  O1S       47.2510   32.9020   21.6720 O.2   245  IDS245     -0.3452
      3  O2S       44.9260   27.0110    7.1940 O.2   249  IDS249     -0.3452
      4  O6S       42.5970   23.9870    4.3580 O.2   250  SGN250     -0.3452
      5  C4        47.0650   26.2080   -0.9060 C.3   251  IDS251      0.1267
      6  O4S       43.2920   32.8270   20.1980 O.2   246  SGN246     -0.3452
      7  O3        47.5850   37.2460   15.7410 O.3   246  SGN246     -0.2029
      8  O61       44.1730   30.6970   14.7020 O.2   247  IDS247     -0.2480
      9  S         51.6050   25.0780   -0.0480 S.3   251  IDS251     -0.0004
     10  O6        44.0370   25.6380    3.3550 O.3   250  SGN250     -0.2520
     11  O6        44.7800   34.4750   19.3040 O.3   246  SGN246     -0.2520
     12  O6S       50.9960   30.1800   11.9160 O.2   248  SGN248     -0.3452
     13  O2        47.1630   34.3340   10.2220 O.3   247  IDS247     -0.2435
     14  O3S       47.7060   35.2350    7.9680 O.2   247  IDS247     -0.3452
     15  O1S       47.6150   25.4630   13.0770 O.3   248  SGN248     -0.0534
     16  O2S       48.8600   32.4080   19.9440 O.2   245  IDS245     -0.3452
     17  O6S       42.5730   34.2890   18.4360 O.2   246  SGN246     -0.3452
     18  O5        47.0400   31.8380   12.8910 O.3   247  IDS247     -0.3314
     19  C5        48.6770   20.1880   -2.0660 C.3   252  SGN252      0.1158
     20  O3        48.7800   24.7890    8.2450 O.3   249  IDS249     -0.3863
     21  O62       44.1390   24.8990   -0.8370 O.2   251  IDS251     -0.2480
     22  O1        46.7580   26.7410    0.3190 O.3   250  SGN250     -0.3406
     23  O2S       44.7100   19.3960    2.4520 O.3   252  SGN252     -0.0534
     24  O1S       51.3090   26.3390    0.6180 O.2   251  IDS251     -0.3452
     25  C4        49.5060   26.6620    7.7430 C.3   249  IDS249      0.1267
     26  S1        49.5760   30.3780   -0.0390 S.3   250  SGN250      0.0767
     27  C6        45.3190   30.9450   14.3620 C.2   247  IDS247      0.3367
     28  S1        48.5170   25.3360   11.9520 S.3   248  SGN248      0.0767
     29  C1        48.7830   23.6990   -0.5510 C.3   251  IDS251      0.1915
     30  N         48.5520   29.0650   -0.0060 N.3   250  SGN250     -0.1775
     31  C5        45.9670   34.1880   17.2270 C.3   246  SGN246      0.1158
     32  C2        47.6010   25.7450    6.2860 C.3   249  IDS249      0.1644
     33  C2        48.8730   27.8860   10.9830 C.3   248  SGN248      0.1081
     34  C6        44.7180   26.8120    3.6820 C.3   250  SGN250      0.1035
     35  O1        45.4980   33.7620   14.4950 O.3   246  SGN246     -0.3406
     36  C1        46.2960   28.0610    0.5360 C.3   250  SGN250      0.1795
     37  O5S       42.9640   35.1700   20.6290 O.3   246  SGN246     -0.2682
     38  O1        48.6840   22.5640   -1.4310 O.3   251  IDS251     -0.3401
     39  O1S       47.0990   37.9430   12.2360 O.3   246  SGN246     -0.0535
     40  O5        47.5290   24.0190    0.0760 O.3   251  IDS251     -0.3314
     41  O3S       43.0160   18.4120    1.0420 O.3   252  SGN252     -0.0534
     42  C6        50.4060   31.7170    9.6590 C.3   248  SGN248      0.1035
     43  C3        48.1720   25.8720    7.6790 C.3   249  IDS249      0.1174
     44  O5S       52.0460   19.9820    0.8100 O.2   252  SGN252     -0.3452
     45  N         48.1910   26.5640   10.8900 N.3   248  SGN248     -0.1775
     46  O5        44.6590   34.3150   16.5550 O.3   246  SGN246     -0.3413
     47  O1S       45.4930   34.3810    8.4600 O.2   247  IDS247     -0.3452
     48  C1        47.4560   32.3590   11.6260 C.3   247  IDS247      0.1915
     49  O2S       46.1930   36.4720    9.4120 O.3   247  IDS247     -0.2682
     50  C4        48.3080   21.2170   -0.9510 C.3   252  SGN252      0.1176
     51  O3S       43.9150   24.8490    6.8620 O.2   249  IDS249     -0.3452
     52  C4        46.7300   35.5790   17.2000 C.3   246  SGN246      0.1180
     53  C2        46.4150   19.7010   -0.2770 C.3   252  SGN252      0.1079
     54  C5        46.5730   24.7340   -0.7850 C.3   251  IDS251      0.1863
     55  O61       51.9370   28.3700    6.2220 O.2   249  IDS249     -0.2480
     56  C5        45.6070   31.7990   13.1120 C.3   247  IDS247      0.1863
     57  O4S       51.9260   32.2220   12.8280 O.2   248  SGN248     -0.3452
     58  C6        45.6870   33.6330   18.6450 C.3   246  SGN246      0.1035
     59  O2S       50.9400   29.8230   -0.0350 O.3   250  SGN250     -0.0534
     60  C6        45.1290   24.6060   -0.1880 C.2   251  IDS251      0.3367
     61  O6S       52.1000   18.3680   -1.0010 O.2   252  SGN252     -0.3452
     62  C2        48.8450   35.8360   19.9900 C.3   245  IDS245      0.1318
     63  C1        47.4650   27.1290    5.5950 C.3   249  IDS249      0.1915
     64  O3        46.8700   28.9240   11.8410 O.3   248  SGN248     -0.3874
     65  O3S       49.8960   25.5170   12.3620 O.3   248  SGN248     -0.0534
     66  O3S       49.2540   31.0490   -1.2930 O.3   250  SGN250     -0.0534
     67  O1        46.0560   19.0570   -2.5960 O.3   252  SGN252     -0.3656
     68  O61       44.9580   24.2100    0.9690 O.3   251  IDS251     -0.4788
     69  C2        45.5180   36.1460   15.1380 C.3   246  SGN246      0.1114
     70  O6        50.9120   20.4830   -1.2420 O.3   252  SGN252     -0.2520
     71  O2S       51.2650   23.9330    0.7770 O.2   251  IDS251     -0.3452
     72  O5        48.2490   18.8620   -1.6850 O.3   252  SGN252     -0.3416
     73  N         44.9510   19.5670   -0.0190 N.3   252  SGN252     -0.1775
     74  O5S       41.8670   25.2720    2.4640 O.2   250  SGN250     -0.3452
     75  O2S       45.1340   38.9670   13.2060 O.3   246  SGN246     -0.0535
     76  C6        50.1750   20.0950   -2.3820 C.3   252  SGN252      0.1035
     77  O2S       48.3290   24.1110   11.1850 O.3   248  SGN248     -0.0534
     78  O4S       53.3630   20.4400   -1.1800 O.3   252  SGN252     -0.2682
     79  C5        49.7030   27.4760    6.4160 C.3   249  IDS249      0.1863
     80  O62       50.4730   29.7160    6.8930 O.3   249  IDS249     -0.4788
     81  O3        49.1650   36.3010   22.2950 O.3   245  IDS245     -0.3923
     82  C3        46.9110   36.0070   15.7690 C.3   246  SGN246      0.1459
     83  O1        47.5560   31.3640   10.6720 O.3   247  IDS247     -0.3401
     84  C4        45.0750   33.2840   13.2210 C.3   247  IDS247      0.1267
     85  O1S       45.1940   17.3840    1.2020 O.3   252  SGN252     -0.0534
     86  O3        44.8410   35.0750   11.5940 O.3   247  IDS247     -0.3863
     87  O5S       49.5620   31.7550   13.0590 O.3   248  SGN248     -0.2682
     88  O3        49.0230   27.2480   -1.8700 O.3   251  IDS251     -0.3863
     89  C2        47.5350   28.8750    1.0790 C.3   250  SGN250      0.1081
     90  C4        47.0990   27.7390    3.2900 C.3   250  SGN250      0.1176
     91  O3        49.2860   28.6270    2.7580 O.3   250  SGN250     -0.3874
     92  O4S       42.0790   26.3520    4.6060 O.3   250  SGN250     -0.2682
     93  C3        45.7820   34.1740   12.1660 C.3   247  IDS247      0.1174
     94  S         45.0680   25.5830    7.3370 S.3   249  IDS249     -0.0004
     95  O1S       49.2880   31.2280    1.1060 O.3   250  SGN250     -0.0534
     96  O2        48.0570   34.6900   20.3090 O.3   245  IDS245     -0.2467
     97  C3        48.6770   36.8410   21.0900 C.3   245  IDS245      0.0748
     98  O3S       47.0230   38.4230   14.5880 O.3   246  SGN246     -0.0774
     99  S         48.4660   33.3320   20.9930 S.3   245  IDS245     -0.0005
    100  S2        50.7610   31.5680   12.2610 S.3   248  SGN248     -0.0008
    101  O1S       45.4530   25.2120    8.6890 O.3   249  IDS249     -0.2682
    102  O1        48.0340   35.4900   17.7870 O.3   245  IDS245     -0.3685
    103  O6        50.4350   32.2920   10.9280 O.3   248  SGN248     -0.2520
    104  O1        47.6690   26.8750    4.2560 O.3   249  IDS249     -0.3401
    105  O3S       52.9500   25.0210   -0.5700 O.3   251  IDS251     -0.2682
    106  O5        48.4240   28.0610    6.0790 O.3   249  IDS249     -0.3314
    107  C1        46.8230   18.7400   -1.4170 C.3   252  SGN252      0.1762
    108  C5        45.8370   27.0550    2.6620 C.3   250  SGN250      0.1158
    109  O2        46.3090   25.1140    6.4120 O.3   249  IDS249     -0.2435
    110  O3        46.3850   21.9810    0.3090 O.3   252  SGN252     -0.3874
    111  S2        43.3140   34.1620   19.6600 S.3   246  SGN246     -0.0008
    112  S2        52.1900   19.7760   -0.6270 S.3   252  SGN252     -0.0008
    113  S1        46.2580   38.0760   13.4100 S.3   246  SGN246      0.0749
    114  C2        46.4600   33.3890   11.0570 C.3   247  IDS247      0.1644
    115  S2        42.5580   25.2980    3.7260 S.3   250  SGN250     -0.0008
    116  O1        49.2750   27.9630    8.6450 O.3   248  SGN248     -0.3406
    117  O5        50.5650   29.3090    9.8950 O.3   248  SGN248     -0.3413
    118  C3        46.7560   21.1220   -0.7160 C.3   252  SGN252      0.1055
    119  C1        49.9380   28.0310    9.8440 C.3   248  SGN248      0.1795
    120  O2        50.6560   25.0620   -1.3600 O.3   251  IDS251     -0.2435
    121  O5        45.3140   27.9120    1.5760 O.3   250  SGN250     -0.3413
    122  S         46.6110   35.1690    8.9400 S.3   247  IDS247     -0.0004
    123  O3S       49.5350   33.6550   21.9090 O.3   245  IDS245     -0.2682
    124  C3        47.8340   29.0030   10.8030 C.3   248  SGN248      0.1055
    125  O62       46.2200   30.5060   15.0490 O.3   247  IDS247     -0.4788
    126  C2        49.2390   24.8880   -1.4420 C.3   251  IDS251      0.1644
    127  S1        44.4460   18.6260    1.2540 S.3   252  SGN252      0.0767
    128  C1        44.7620   34.7460   15.1990 C.3   246  SGN246      0.1796
    129  C5        49.6060   30.4060    9.7120 C.3   248  SGN248      0.1158
    130  C3        48.1550   27.9800    2.1900 C.3   250  SGN250      0.1055
    131  N         45.6450   36.5900   13.7490 N.3   246  SGN246     -0.1775
    132  C4        48.5410   30.3580   10.8620 C.3   248  SGN248      0.1176
    133  C1        48.3240   36.4860   18.7340 C.3   245  IDS245      0.0788
    134  C6        50.7640   28.5930    6.5210 C.2   249  IDS249      0.3367
    135  H         48.9600   26.3800    0.0040 H     251  IDS251      0.0649
    136  H         46.6430   26.7160   -1.7480 H     251  IDS251      0.0656
    137  H         48.1750   20.5490   -2.9390 H     252  SGN252      0.0648
    138  H         49.0940   25.0220    9.1330 H     249  IDS249      0.2100
    139  H         50.2600   25.9560    8.0200 H     249  IDS249      0.0656
    140  H         49.4690   23.4880    0.2420 H     251  IDS251      0.0939
    141  H         49.1490   28.2380    0.0150 H     250  SGN250      0.1487
    142  H         46.6260   33.5090   16.7280 H     246  SGN246      0.0648
    143  H         48.2570   25.1620    5.6740 H     249  IDS249      0.0698
    144  H         49.3510   27.9570   11.9380 H     248  SGN248      0.0554
    145  H         45.1410   26.7180    4.6600 H     250  SGN250      0.0610
    146  H         44.0360   27.6360    3.6660 H     250  SGN250      0.0610
    147  H         45.8920   28.5520   -0.3250 H     250  SGN250      0.0927
    148  H         49.9400   32.3920    8.9720 H     248  SGN248      0.0610
    149  H         51.4050   31.5140    9.3350 H     248  SGN248      0.0610
    150  H         47.2710   26.2300    8.1320 H     249  IDS249      0.0649
    151  H         47.1910   26.7520   10.9670 H     248  SGN248      0.1487
    152  H         48.4040   32.8160   11.8180 H     247  IDS247      0.0939
    153  H         48.8210   21.0190   -0.0330 H     252  SGN252      0.0650
    154  H         46.1440   36.2770   17.7600 H     246  SGN246      0.0650
    155  H         46.9380   19.4680    0.6270 H     252  SGN252      0.0554
    156  H         46.5240   24.3150   -1.7680 H     251  IDS251      0.0742
    157  H         45.0870   31.3380   12.2980 H     247  IDS247      0.0742
    158  H         45.2710   32.6500   18.5680 H     246  SGN246      0.0610
    159  H         46.6020   33.5900   19.1990 H     246  SGN246      0.0610
    160  H         49.8640   35.5350   19.8650 H     245  IDS245      0.0666
    161  H         46.5100   27.5700    5.7910 H     249  IDS249      0.0939
    162  H         46.4230   28.0640   11.8020 H     248  SGN248      0.2100
    163  H         45.1100   18.9710   -2.3990 H     252  SGN252      0.2125
    164  H         45.6950   23.9760    1.4980 H     251  IDS251      0.2951
    165  H         44.9520   36.8730   15.6830 H     246  SGN246      0.0555
    166  H         44.5320   19.1780   -0.8640 H     252  SGN252      0.1487
    167  H         50.4100   20.7450   -3.1990 H     252  SGN252      0.0610
    168  H         50.4260   19.0900   -2.6490 H     252  SGN252      0.0610
    169  H         50.0590   26.8030    5.6640 H     249  IDS249      0.0742
    170  H         49.5890   29.9170    7.1280 H     249  IDS249      0.2951
    171  H         49.0570   36.9500   23.0080 H     245  IDS245      0.2095
    172  H         47.4870   35.2890   15.2230 H     246  SGN246      0.0674
    173  H         44.0150   33.3130   13.0800 H     247  IDS247      0.0656
    174  H         44.4060   35.5790   12.2990 H     247  IDS247      0.2100
    175  H         48.6900   27.0660   -2.7630 H     251  IDS251      0.2100
    176  H         47.2420   29.8410    1.4330 H     250  SGN250      0.0554
    177  H         46.8060   28.6660    3.7380 H     250  SGN250      0.0650
    178  H         49.9510   28.7800    2.0690 H     250  SGN250      0.2100
    179  H         46.5540   34.7010   12.6870 H     247  IDS247      0.0649
    180  H         47.6400   37.0800   21.2000 H     245  IDS245      0.0584
    181  H         49.2230   37.7290   20.8490 H     245  IDS245      0.0584
    182  H         46.6230   17.7290   -1.1280 H     252  SGN252      0.0925
    183  H         46.1470   26.1000    2.2920 H     250  SGN250      0.0648
    184  H         46.5910   22.8940    0.0560 H     252  SGN252      0.2100
    185  H         45.7240   32.8490   10.4980 H     247  IDS247      0.0698
    186  H         46.2450   21.3820   -1.6190 H     252  SGN252      0.0638
    187  H         50.6740   27.2630    9.9570 H     248  SGN248      0.0927
    188  H         47.3450   28.8930    9.8580 H     248  SGN248      0.0638
    189  H         47.1120   30.6770   14.8180 H     247  IDS247      0.2951
    190  H         48.9280   24.6490   -2.4370 H     251  IDS251      0.0698
    191  H         43.7930   34.8700   14.7630 H     246  SGN246      0.0927
    192  H         49.0570   30.3220    8.7970 H     248  SGN248      0.0648
    193  H         48.4610   27.0470    1.7650 H     250  SGN250      0.0638
    194  H         44.7090   36.5590   13.3440 H     246  SGN246      0.1487
    195  H         49.0340   30.5100   11.7990 H     248  SGN248      0.0650
    196  H         49.0650   37.1500   18.3400 H     245  IDS245      0.0587
    197  H         47.4370   37.0410   18.9570 H     245  IDS245      0.0587
@<TRIPOS>BOND
     1     1   126    1
     2     1     5    1
     3     1    88    1
     4     1   135    1
     5     2    99    2
     6     3    94    2
     7     4   115    2
     8     5    22    1
     9     5    54    1
    10     5   136    1
    11     6   111    2
    12     7    82    1
    13     7    98    1
    14     8    27    2
    15     9   120    1
    16     9    24    2
    17     9    71    2
    18     9   105    1
    19    10    34    1
    20    10   115    1
    21    11    58    1
    22    11   111    1
    23    12   100    2
    24    13   114    1
    25    13   122    1
    26    14   122    2
    27    15    28    1
    28    16    99    2
    29    17   111    2
    30    18    48    1
    31    18    56    1
    32    19    50    1
    33    19    76    1
    34    19    72    1
    35    19   137    1
    36    20    43    1
    37    20   138    1
    38    21    60    2
    39    22    36    1
    40    23   127    1
    41    25   116    1
    42    25    43    1
    43    25    79    1
    44    25   139    1
    45    26    30    1
    46    26    95    1
    47    26    59    1
    48    26    66    1
    49    27    56    1
    50    27   125    1
    51    28    45    1
    52    28    77    1
    53    28    65    1
    54    29   126    1
    55    29    38    1
    56    29    40    1
    57    29   140    1
    58    30    89    1
    59    30   141    1
    60    31    52    1
    61    31    58    1
    62    31    46    1
    63    31   142    1
    64    32    63    1
    65    32    43    1
    66    32   109    1
    67    32   143    1
    68    33   119    1
    69    33   124    1
    70    33    45    1
    71    33   144    1
    72    34   108    1
    73    34   145    1
    74    34   146    1
    75    35   128    1
    76    35    84    1
    77    36    89    1
    78    36   121    1
    79    36   147    1
    80    37   111    1
    81    38    50    1
    82    39   113    1
    83    40    54    1
    84    41   127    1
    85    42   129    1
    86    42   103    1
    87    42   148    1
    88    42   149    1
    89    43   150    1
    90    44   112    2
    91    45   151    1
    92    46   128    1
    93    47   122    2
    94    48   114    1
    95    48    83    1
    96    48   152    1
    97    49   122    1
    98    50   118    1
    99    50   153    1
   100    51    94    2
   101    52   102    1
   102    52    82    1
   103    52   154    1
   104    53   107    1
   105    53   118    1
   106    53    73    1
   107    53   155    1
   108    54    60    1
   109    54   156    1
   110    55   134    2
   111    56    84    1
   112    56   157    1
   113    57   100    2
   114    58   158    1
   115    58   159    1
   116    60    68    1
   117    61   112    2
   118    62   133    1
   119    62    97    1
   120    62    96    1
   121    62   160    1
   122    63   104    1
   123    63   106    1
   124    63   161    1
   125    64   124    1
   126    64   162    1
   127    67   107    1
   128    67   163    1
   129    68   164    1
   130    69   128    1
   131    69    82    1
   132    69   131    1
   133    69   165    1
   134    70    76    1
   135    70   112    1
   136    72   107    1
   137    73   127    1
   138    73   166    1
   139    74   115    2
   140    75   113    1
   141    76   167    1
   142    76   168    1
   143    78   112    1
   144    79   134    1
   145    79   106    1
   146    79   169    1
   147    80   134    1
   148    80   170    1
   149    81    97    1
   150    81   171    1
   151    82   172    1
   152    83   132    1
   153    84    93    1
   154    84   173    1
   155    85   127    1
   156    86    93    1
   157    86   174    1
   158    87   100    1
   159    88   175    1
   160    89   130    1
   161    89   176    1
   162    90   104    1
   163    90   130    1
   164    90   108    1
   165    90   177    1
   166    91   130    1
   167    91   178    1
   168    92   115    1
   169    93   114    1
   170    93   179    1
   171    94   109    1
   172    94   101    1
   173    96    99    1
   174    97   180    1
   175    97   181    1
   176    98   113    1
   177    99   123    1
   178   100   103    1
   179   102   133    1
   180   107   182    1
   181   108   121    1
   182   108   183    1
   183   110   118    1
   184   110   184    1
   185   113   131    1
   186   114   185    1
   187   116   119    1
   188   117   119    1
   189   117   129    1
   190   118   186    1
   191   119   187    1
   192   120   126    1
   193   124   132    1
   194   124   188    1
   195   125   189    1
   196   126   190    1
   197   128   191    1
   198   129   132    1
   199   129   192    1
   200   130   193    1
   201   131   194    1
   202   132   195    1
   203   133   196    1
   204   133   197    1
