@<TRIPOS>MOLECULE
1RID_LIGAND_2.pdb
 226 233 0 0 0
SMALL
GASTEIGER

@<TRIPOS>ATOM
      1  C2        46.3040   -5.4830  115.9030 C.3   252  SGN252      0.1076
      2  O3S       49.4550   -3.8440  107.7310 O.2   249  IDS249     -0.1181
      3  S1        48.5390    6.0770   96.1370 S.3   246  SGN246     -0.0198
      4  C1        45.7390   -5.9590  117.2630 C.3   252  SGN252      0.1762
      5  O62       43.3480    0.5250  104.4200 O.2   249  IDS249     -0.2480
      6  O5        45.2180   -0.4150  106.4860 O.3   249  IDS249     -0.3314
      7  C2        47.6850    2.5460  100.1090 C.3   247  IDS247      0.1684
      8  O3S       44.5490    4.6670  112.8720 O.3   250  SGN250     -0.2626
      9  O6        42.9780    0.6550  100.3350 O.3   248  SGN248     -0.2131
     10  O5        47.5110    0.3440   99.0030 O.3   247  IDS247     -0.3314
     11  C4        45.2650    0.6290  113.7310 C.3   251  IDS251      0.1267
     12  O2S       46.9560   -2.1130   92.1430 O.2   245  IDS245     -0.1181
     13  O2        46.8040    3.6580  100.3750 O.3   247  IDS247     -0.2047
     14  O5        43.6200   -1.1820  102.2180 O.3   248  SGN248     -0.3413
     15  O6S       51.6810    0.0410  109.5110 O.2   250  SGN250     -0.1181
     16  O2S       48.7240   -1.9280  106.4650 O.2   249  IDS249     -0.1181
     17  O1        46.2710   -5.1170  118.3100 O.3   252  SGN252     -0.3656
     18  O1S       48.2540   -4.1370  105.6530 O.3   249  IDS249     -0.2311
     19  C2        49.2180    3.5630   95.4470 C.3   246  SGN246      0.1078
     20  O2        47.0560   -3.3450  107.6220 O.3   249  IDS249     -0.2047
     21  O1S       46.7880   -5.7660  101.2940 O.3   248  SGN248     -0.2626
     22  S2        41.9640    1.4370   99.4630 S.O2  248  SGN248      0.2076
     23  S         48.4650   -3.3010  106.8260 S.O2  249  IDS249      0.2080
     24  O5        44.2840   -5.9020  117.2480 O.3   252  SGN252     -0.3416
     25  O1S       47.8690   -8.0420  115.6910 O.3   252  SGN252     -0.2626
     26  C3        46.4810   -1.5110  101.9220 C.3   248  SGN248      0.1055
     27  O3S       49.6770    6.7820   96.6890 O.3   246  SGN246     -0.2626
     28  N         43.8410    2.7150  111.5400 N.3   250  SGN250     -0.1845
     29  O62       44.0860    5.3610   90.4860 O.2   245  IDS245     -0.2481
     30  C4        48.4200    2.0990   93.6390 C.3   246  SGN246      0.1176
     31  C6        48.3670   -0.3600  109.6890 C.3   250  SGN250      0.1076
     32  O5S       50.8540    2.2150  108.9110 O.2   250  SGN250     -0.1181
     33  O5        46.0580    3.1430   91.5460 O.3   245  IDS245     -0.3340
     34  O62       48.2130   -0.2880  114.6490 O.2   251  IDS251     -0.2480
     35  C3        48.5140    2.9020   98.8900 C.3   247  IDS247      0.1176
     36  O3S       46.5910   -1.8240   89.7650 O.2   245  IDS245     -0.1181
     37  C1        46.8530    1.2710   99.8710 C.3   247  IDS247      0.1916
     38  O1        45.7630    0.6680  112.4530 O.3   250  SGN250     -0.3406
     39  S1        48.5600   -6.8450  115.2460 S.3   252  SGN252     -0.0198
     40  C5        47.0740    0.1360  110.3480 C.3   250  SGN250      0.1159
     41  C6        43.0370   -0.0050  105.4720 C.2   249  IDS249      0.3367
     42  C3        47.1490    1.5020   89.3340 C.3   245  IDS245      0.0914
     43  O4S       39.8080   -3.5520  114.9540 O.2   252  SGN252     -0.1181
     44  O61       45.8040    5.5640   89.2970 O.3   245  IDS245     -0.4788
     45  N         47.7930   -5.5420  115.9390 N.3   252  SGN252     -0.1845
     46  C6        42.2130   -4.7190  117.0940 C.3   252  SGN252      0.1076
     47  O1        44.7260   -1.7740  104.0820 O.3   248  SGN248     -0.3406
     48  O62       48.7610   -1.6260   97.7140 O.2   247  IDS247     -0.2480
     49  O5S       52.7550    0.8010   91.2630 O.2   246  SGN246     -0.1181
     50  O3        46.3380   -3.6310  114.4520 O.3   252  SGN252     -0.3874
     51  C6        43.6290    1.1270  101.4760 C.3   248  SGN248      0.1076
     52  C2        45.5410   -2.7190  102.0620 C.3   248  SGN248      0.1078
     53  O1S       41.2970   -0.8600  111.6850 O.2   251  IDS251     -0.1181
     54  N         48.8270    4.5000   96.5000 N.3   246  SGN246     -0.1845
     55  O3        47.6190   -1.8830  101.1580 O.3   248  SGN248     -0.3874
     56  O61       41.9640    0.3160  105.9830 O.3   249  IDS249     -0.4788
     57  C3        43.7300    0.4970  113.5810 C.3   251  IDS251      0.1176
     58  C3        45.8260   -4.0530  115.6730 C.3   252  SGN252      0.1055
     59  O3        43.1230    1.7370  113.8910 O.3   251  IDS251     -0.3863
     60  O4S       50.2270    0.3100  107.5760 O.3   250  SGN250     -0.2311
     61  O1        46.6270    0.7270  101.1220 O.3   247  IDS247     -0.3401
     62  O6S       39.4010   -5.3420  116.5510 O.2   252  SGN252     -0.1181
     63  O3        43.6320    1.1460  109.1200 O.3   250  SGN250     -0.3874
     64  O1S       46.7660    5.6920  101.7010 O.2   247  IDS247     -0.1181
     65  O4S       42.4530    1.3930   98.0970 O.2   248  SGN248     -0.1181
     66  O2        47.7120   -0.0830   91.0030 O.3   245  IDS245     -0.2048
     67  O1S       43.8250    5.0820  110.6170 O.3   250  SGN250     -0.2626
     68  S         40.9650   -1.5190  112.9400 S.O2  251  IDS251      0.2080
     69  O6        41.6760   -4.8970  115.8010 O.3   252  SGN252     -0.2131
     70  S2        50.6020    0.7980  108.8950 S.O2  250  SGN250      0.2076
     71  O2        41.7050   -0.6430  114.0820 O.3   251  IDS251     -0.2047
     72  O6S       52.7850    0.9020   93.6550 O.2   246  SGN246     -0.1181
     73  C5        43.7390   -4.5910  116.9900 C.3   252  SGN252      0.1159
     74  O3S       39.5600   -1.4320  113.2650 O.3   251  IDS251     -0.2311
     75  S2        52.2820    0.2210   92.4950 S.O2  246  SGN246      0.2076
     76  C6        49.5060   -0.8560   98.2910 C.2   247  IDS247      0.3367
     77  O1S       48.8270   -2.1620   90.6180 O.3   245  IDS245     -0.2311
     78  C5        45.8360   -0.7090  114.2920 C.3   251  IDS251      0.1863
     79  C1        43.7520   -1.9940  114.1800 C.3   251  IDS251      0.1916
     80  O3S       46.3100    5.8590   99.3260 O.2   247  IDS247     -0.1181
     81  C5        49.2390    0.9050   94.2930 C.3   246  SGN246      0.1159
     82  S         47.1390    5.2500  100.3700 S.O2  247  IDS247      0.2080
     83  O6S       41.9210    2.7810  100.0080 O.3   248  SGN248     -0.2311
     84  C1        47.0880    2.1450   91.6540 C.3   245  IDS245      0.1914
     85  C4        49.4380    1.7570   98.4040 C.3   247  IDS247      0.1267
     86  C4        44.2680   -2.2940  105.2760 C.3   249  IDS249      0.1267
     87  C6        45.0810    4.8500   89.9850 C.2   245  IDS245      0.3341
     88  C2        45.0410    2.2290  110.7880 C.3   250  SGN250      0.1078
     89  O6        50.7630    0.4830   92.4750 O.3   246  SGN246     -0.2131
     90  O5S       40.0920   -5.8710  114.2860 O.3   252  SGN252     -0.2311
     91  C5        48.9610    0.3820   99.0270 C.3   247  IDS247      0.1863
     92  C6        49.7910   -0.1260   93.2810 C.3   246  SGN246      0.1076
     93  O2S       42.1900    4.4310  112.3210 O.3   250  SGN250     -0.2626
     94  S1        43.5770    4.3340  111.8390 S.3   250  SGN250     -0.0198
     95  O6        49.3620    0.6100  109.8270 O.3   250  SGN250     -0.2131
     96  O1        45.5670   -0.8610  108.7160 O.3   249  IDS249     -0.3401
     97  O1        47.2500    1.6410   92.9560 O.3   245  IDS245     -0.3401
     98  C2        46.8310    0.9990   90.7110 C.3   245  IDS245      0.1660
     99  O3S       44.5650   -5.5140  102.1350 O.3   248  SGN248     -0.2626
    100  C2        45.8300   -2.6670  107.2790 C.3   249  IDS249      0.1684
    101  C4        45.9160    0.3720  109.3190 C.3   250  SGN250      0.1176
    102  O5        45.0800   -1.8080  113.6670 O.3   251  IDS251     -0.3314
    103  S         47.4940   -1.6380   90.8790 S.O2  245  IDS245      0.2080
    104  O3S       49.9370   -6.7960  115.7330 O.3   252  SGN252     -0.2626
    105  O2S       48.5580    5.3980  100.1280 O.3   247  IDS247     -0.2311
    106  C5        45.4130    3.3440   90.1870 C.3   245  IDS245      0.1603
    107  C1        50.0330    2.3470   96.0700 C.3   246  SGN246      0.1795
    108  C4        45.7380   -0.3790  101.2150 C.3   248  SGN248      0.1176
    109  O4S       52.4580   -1.2050   92.5560 O.3   246  SGN246     -0.2311
    110  O5S       40.7190    0.7150   99.6430 O.2   248  SGN248     -0.1181
    111  O1        43.7410   -2.6720  115.4490 O.3   251  IDS251     -0.3401
    112  S2        40.1500   -4.9030  115.3770 S.O2  252  SGN252      0.2076
    113  C6        47.3670   -0.9000  114.0180 C.2   251  IDS251      0.3367
    114  O1S       48.4770    6.1870   94.6930 O.3   246  SGN246     -0.2626
    115  O5        50.3970    1.4320   95.0380 O.3   246  SGN246     -0.3413
    116  C4        46.2790    2.7380   88.9680 C.3   245  IDS245      0.0128
    117  O3        45.2800   -4.4560  105.8030 O.3   249  IDS249     -0.3863
    118  C3        44.6700    0.9060  110.0590 C.3   250  SGN250      0.1055
    119  O3        49.2980    4.0560   99.1760 O.3   247  IDS247     -0.3863
    120  C1        44.2840   -2.2580  102.8750 C.3   248  SGN248      0.1795
    121  O3        46.9080    0.4810   88.3960 O.3   245  IDS245     -0.3889
    122  O61       50.7020   -1.0900   98.2550 O.3   247  IDS247     -0.4788
    123  S1        45.9780   -5.4060  102.4390 S.3   248  SGN248     -0.0198
    124  O3        47.2470    4.0980   94.1550 O.3   246  SGN246     -0.3874
    125  C1        45.9960   -1.1310  107.4340 C.3   249  IDS249      0.1916
    126  O2S       46.3330   -6.1240  103.6580 O.3   248  SGN248     -0.2626
    127  C3        45.4920   -3.0520  105.8580 C.3   249  IDS249      0.1176
    128  C1        46.1990    1.8390  111.7890 C.3   250  SGN250      0.1795
    129  C4        44.2560   -4.0480  115.6180 C.3   252  SGN252      0.1176
    130  C5        43.9530   -1.0380  106.1600 C.3   249  IDS249      0.1863
    131  O61       47.7590   -1.6730  113.1380 O.3   251  IDS251     -0.4788
    132  O2S       48.4800   -6.6440  113.8170 O.3   252  SGN252     -0.2626
    133  O2S       47.2970    6.4440   96.7900 O.3   246  SGN246     -0.2626
    134  O2S       41.4800   -2.8760  112.9980 O.2   251  IDS251     -0.1181
    135  C2        43.0900   -0.6080  114.4340 C.3   251  IDS251      0.1684
    136  C5        44.4820   -0.0010  102.0780 C.3   248  SGN248      0.1159
    137  O5        47.3560    1.4030  111.0550 O.3   250  SGN250     -0.3413
    138  C3        47.9690    3.0310   94.7300 C.3   246  SGN246      0.1055
    139  N         46.2530   -3.8120  102.7830 N.3   248  SGN248     -0.1845
    140  O1        49.2280    1.6410   96.9990 O.3   246  SGN246     -0.3406
    141 H          45.9640   -6.1095  115.1050 H     252  SGN252      0.0554
    142 H          46.0292   -6.9731  117.4425 H     252  SGN252      0.0925
    143 H          48.3325    2.3554  100.9392 H     247  IDS247      0.0699
    144 H          45.4454    4.5894  112.5096 H     250  SGN250      0.2439
    145 H          45.5065    1.4707  114.3459 H     251  IDS251      0.0656
    146 H          46.0091   -4.1969  118.1494 H     252  SGN252      0.2125
    147 H          49.0650   -4.1588  105.1214 H     249  IDS249      0.2469
    148 H          49.8390    4.0766   94.7431 H     246  SGN246      0.0554
    149 H          46.5009   -5.2547  100.5213 H     248  SGN248      0.2439
    150 H          46.9615   -8.0377  115.3485 H     252  SGN252      0.2439
    151 H          46.7970   -1.1843  102.8907 H     248  SGN248      0.0638
    152 H          50.4835    6.5076   96.2251 H     246  SGN246      0.2439
    153 H          43.8719    2.2583  112.4515 H     250  SGN250      0.1485
    154 H          49.0639    2.5823   92.9342 H     246  SGN246      0.0650
    155 H          48.1899   -0.5438  108.6499 H     250  SGN250      0.0611
    156 H          48.6839   -1.2656  110.1627 H     250  SGN250      0.0611
    157 H          47.8232    3.0900   98.0948 H     247  IDS247      0.0649
    158 H          45.9348    1.5060   99.3745 H     247  IDS247      0.0939
    159 H          46.7460   -0.6254  111.0244 H     250  SGN250      0.0648
    160 H          48.1786    1.7926   89.3165 H     245  IDS245      0.0622
    161 H          46.5731    5.2065   88.8986 H     245  IDS245      0.2951
    162 H          48.0704   -5.5179  116.9203 H     252  SGN252      0.1485
    163 H          41.8078   -3.8305  117.5312 H     252  SGN252      0.0611
    164 H          41.9624   -5.5590  117.7075 H     252  SGN252      0.0611
    165 H          47.3073   -3.6351  114.4890 H     252  SGN252      0.2100
    166 H          42.9037    1.4486  102.1939 H     248  SGN248      0.0611
    167 H          44.2587    1.9514  101.2139 H     248  SGN248      0.0611
    168 H          45.2392   -3.0841  101.1026 H     248  SGN248      0.0554
    169 H          47.9711    4.1334   96.9164 H     246  SGN246      0.1485
    170 H          47.3355   -2.1797  100.2791 H     248  SGN248      0.2100
    171 H          41.6954   -0.0731  106.7920 H     249  IDS249      0.2951
    172 H          43.5596    0.2143  112.5632 H     251  IDS251      0.0649
    173 H          46.1529   -3.4038  116.4582 H     252  SGN252      0.0638
    174 H          43.2982    1.9598  114.8187 H     251  IDS251      0.2100
    175 H          50.9764    0.4117  106.9685 H     250  SGN250      0.2469
    176 H          42.8484    1.4815  109.5830 H     250  SGN250      0.2100
    177 H          44.7531    4.9759  110.3557 H     250  SGN250      0.2439
    178 H          44.0623   -3.8621  117.7035 H     252  SGN252      0.0648
    179 H          39.2721   -0.5073  113.2104 H     251  IDS251      0.2469
    180 H          48.7831   -3.1267   90.5268 H     245  IDS245      0.2469
    181 H          45.7277   -0.6981  115.3564 H     251  IDS251      0.0742
    182 H          43.2297   -2.5763  113.4499 H     251  IDS251      0.0939
    183 H          48.5332    0.4069   94.9244 H     246  SGN246      0.0648
    184 H          42.7750    3.2169   99.8612 H     248  SGN248      0.2469
    185 H          47.9958    2.6457   91.3891 H     245  IDS245      0.0939
    186 H          50.4528    1.9619   98.6745 H     247  IDS247      0.0656
    187 H          43.4139   -2.9349  105.2075 H     249  IDS249      0.0656
    188 H          45.3490    3.0046  110.1183 H     250  SGN250      0.0554
    189 H          39.1803   -5.9385  113.9617 H     252  SGN252      0.2469
    190 H          49.3475    0.3389  100.0238 H     247  IDS247      0.0742
    191 H          48.9922   -0.4851   92.6663 H     246  SGN246      0.0611
    192 H          50.2300   -0.9454   93.8109 H     246  SGN246      0.0611
    193 H          42.0935    3.9120  113.1348 H     250  SGN250      0.2439
    194 H          45.8204    0.6585   90.7989 H     245  IDS245      0.0698
    195 H          44.3712   -5.0246  101.3202 H     248  SGN248      0.2439
    196 H          45.0339   -2.9540  107.9339 H     249  IDS249      0.0699
    197 H          46.2427    1.0743  108.5808 H     250  SGN250      0.0650
    198 H          49.9456   -6.9350  116.6930 H     252  SGN252      0.2439
    199 H          49.0543    4.9778  100.8478 H     247  IDS247      0.2469
    200 H          44.5017    2.7835   90.1748 H     245  IDS245      0.0715
    201 H          50.9016    2.7420   96.5541 H     246  SGN246      0.0927
    202 H          45.4158   -0.6658  100.2358 H     248  SGN248      0.0650
    203 H          53.4052   -1.4136   92.5704 H     246  SGN246      0.2469
    204 H          47.7033    5.7027   94.3648 H     246  SGN246      0.2439
    205 H          45.6025    2.4499   88.1907 H     245  IDS245      0.0321
    206 H          46.9607    3.5079   88.6723 H     245  IDS245      0.0321
    207 H          45.0620   -4.7147  104.8939 H     249  IDS249      0.2100
    208 H          44.3343    0.1865  110.7763 H     250  SGN250      0.0638
    209 H          49.9137    3.8576   99.8988 H     247  IDS247      0.2100
    210 H          43.6139   -3.0858  102.9781 H     248  SGN248      0.0927
    211 H          45.9715    0.2298   88.4249 H     245  IDS245      0.2099
    212 H          51.3045   -0.5181   98.6884 H     247  IDS247      0.2951
    213 H          46.9531    4.7032   94.8538 H     246  SGN246      0.2100
    214 H          47.0080   -0.8280  107.2637 H     249  IDS249      0.0939
    215 H          46.1942   -7.0748  103.5253 H     248  SGN248      0.2439
    216 H          46.3215   -2.7671  105.2451 H     249  IDS249      0.0649
    217 H          46.4216    2.6708  112.4242 H     250  SGN250      0.0927
    218 H          43.9255   -4.6461  114.7947 H     252  SGN252      0.0650
    219 H          43.4210   -1.3686  107.0275 H     249  IDS249      0.0742
    220 H          47.1388   -2.1605  112.6323 H     251  IDS251      0.2951
    221 H          47.5524   -6.6839  113.5363 H     252  SGN252      0.2439
    222 H          46.5636    5.9503   96.3908 H     246  SGN246      0.2439
    223 H          43.2268   -0.3976  115.4741 H     251  IDS251      0.0699
    224 H          44.8615    0.3441  103.0170 H     248  SGN248      0.0648
    225 H          47.3374    2.5238   95.4291 H     246  SGN246      0.0638
    226 H          46.0365   -3.6910  103.7724 H     248  SGN248      0.1485
@<TRIPOS>BOND
     1     1     4    1
     2     1    58    1
     3     1    45    1
     4     2    23    2
     5     3    54    1
     6     3   114    1
     7     3   133    1
     8     3    27    1
     9     4    17    1
    10     4    24    1
    11     5    41    2
    12     6   125    1
    13     6   130    1
    14     7    37    1
    15     7    35    1
    16     7    13    1
    17     8    94    1
    18     9    51    1
    19     9    22    1
    20    10    37    1
    21    10    91    1
    22    11    38    1
    23    11    57    1
    24    11    78    1
    25    12   103    2
    26    13    82    1
    27    14   120    1
    28    14   136    1
    29    15    70    2
    30    16    23    2
    31    18    23    1
    32    19   107    1
    33    19   138    1
    34    19    54    1
    35    20   100    1
    36    20    23    1
    37    21   123    1
    38    22    65    2
    39    22   110    2
    40    22    83    1
    41    24    73    1
    42    25    39    1
    43    26    52    1
    44    26   108    1
    45    26    55    1
    46    28    88    1
    47    28    94    1
    48    29    87    2
    49    30    97    1
    50    30   138    1
    51    30    81    1
    52    31    40    1
    53    31    95    1
    54    32    70    2
    55    33    84    1
    56    33   106    1
    57    34   113    2
    58    35    85    1
    59    35   119    1
    60    36   103    2
    61    37    61    1
    62    38   128    1
    63    39    45    1
    64    39   132    1
    65    39   104    1
    66    40   101    1
    67    40   137    1
    68    41   130    1
    69    41    56    1
    70    42    98    1
    71    42   116    1
    72    42   121    1
    73    43   112    2
    74    44    87    1
    75    46    73    1
    76    46    69    1
    77    47   120    1
    78    47    86    1
    79    48    76    2
    80    49    75    2
    81    50    58    1
    82    51   136    1
    83    52   120    1
    84    52   139    1
    85    53    68    2
    86    57   135    1
    87    57    59    1
    88    58   129    1
    89    60    70    1
    90    61   108    1
    91    62   112    2
    92    63   118    1
    93    64    82    2
    94    66    98    1
    95    66   103    1
    96    67    94    1
    97    68    71    1
    98    68   134    2
    99    68    74    1
   100    69   112    1
   101    70    95    1
   102    71   135    1
   103    72    75    2
   104    73   129    1
   105    75    89    1
   106    75   109    1
   107    76    91    1
   108    76   122    1
   109    77   103    1
   110    78   113    1
   111    78   102    1
   112    79   135    1
   113    79   111    1
   114    79   102    1
   115    80    82    2
   116    81    92    1
   117    81   115    1
   118    82   105    1
   119    84    98    1
   120    84    97    1
   121    85   140    1
   122    85    91    1
   123    86   127    1
   124    86   130    1
   125    87   106    1
   126    88   128    1
   127    88   118    1
   128    89    92    1
   129    90   112    1
   130    93    94    1
   131    96   125    1
   132    96   101    1
   133    99   123    1
   134   100   125    1
   135   100   127    1
   136   101   118    1
   137   106   116    1
   138   107   140    1
   139   107   115    1
   140   108   136    1
   141   111   129    1
   142   113   131    1
   143   117   127    1
   144   123   139    1
   145   123   126    1
   146   124   138    1
   147   128   137    1
   148     1   141    1
   149     4   142    1
   150     7   143    1
   151     8   144    1
   152    11   145    1
   153    17   146    1
   154    18   147    1
   155    19   148    1
   156    21   149    1
   157    25   150    1
   158    26   151    1
   159    27   152    1
   160    28   153    1
   161    30   154    1
   162    31   155    1
   163    31   156    1
   164    35   157    1
   165    37   158    1
   166    40   159    1
   167    42   160    1
   168    44   161    1
   169    45   162    1
   170    46   163    1
   171    46   164    1
   172    50   165    1
   173    51   166    1
   174    51   167    1
   175    52   168    1
   176    54   169    1
   177    55   170    1
   178    56   171    1
   179    57   172    1
   180    58   173    1
   181    59   174    1
   182    60   175    1
   183    63   176    1
   184    67   177    1
   185    73   178    1
   186    74   179    1
   187    77   180    1
   188    78   181    1
   189    79   182    1
   190    81   183    1
   191    83   184    1
   192    84   185    1
   193    85   186    1
   194    86   187    1
   195    88   188    1
   196    90   189    1
   197    91   190    1
   198    92   191    1
   199    92   192    1
   200    93   193    1
   201    98   194    1
   202    99   195    1
   203   100   196    1
   204   101   197    1
   205   104   198    1
   206   105   199    1
   207   106   200    1
   208   107   201    1
   209   108   202    1
   210   109   203    1
   211   114   204    1
   212   116   205    1
   213   116   206    1
   214   117   207    1
   215   118   208    1
   216   119   209    1
   217   120   210    1
   218   121   211    1
   219   122   212    1
   220   124   213    1
   221   125   214    1
   222   126   215    1
   223   127   216    1
   224   128   217    1
   225   129   218    1
   226   130   219    1
   227   131   220    1
   228   132   221    1
   229   133   222    1
   230   135   223    1
   231   136   224    1
   232   138   225    1
   233   139   226    1
