@<TRIPOS>MOLECULE
1RID_LIGAND_1.pdb
 216 223 0 0 0
SMALL
GASTEIGER

@<TRIPOS>ATOM
      1  C3        48.6110   26.2160   -0.9940 C.3   251  IDS251      0.1176
      2  O1S       47.2510   32.9020   21.6720 O.2   245  IDS245     -0.1181
      3  O2S       44.9260   27.0110    7.1940 O.2   249  IDS249     -0.1181
      4  O6S       42.5970   23.9870    4.3580 O.2   250  SGN250     -0.1181
      5  C4        47.0650   26.2080   -0.9060 C.3   251  IDS251      0.1267
      6  O4S       43.2920   32.8270   20.1980 O.2   246  SGN246     -0.1181
      7  O3        47.5850   37.2460   15.7410 O.3   246  SGN246     -0.2031
      8  O61       44.1730   30.6970   14.7020 O.2   247  IDS247     -0.2480
      9  S         51.6050   25.0780   -0.0480 S.O2  251  IDS251      0.2080
     10  O6        44.0370   25.6380    3.3550 O.3   250  SGN250     -0.2131
     11  O6        44.7800   34.4750   19.3040 O.3   246  SGN246     -0.2131
     12  O6S       50.9960   30.1800   11.9160 O.2   248  SGN248     -0.1181
     13  O2        47.1630   34.3340   10.2220 O.3   247  IDS247     -0.2047
     14  O3S       47.7060   35.2350    7.9680 O.2   247  IDS247     -0.1181
     15  O1S       47.6150   25.4630   13.0770 O.3   248  SGN248     -0.2626
     16  O2S       48.8600   32.4080   19.9440 O.2   245  IDS245     -0.1181
     17  O6S       42.5730   34.2890   18.4360 O.2   246  SGN246     -0.1181
     18  O5        47.0400   31.8380   12.8910 O.3   247  IDS247     -0.3314
     19  C5        48.6770   20.1880   -2.0660 C.3   252  SGN252      0.1159
     20  O3        48.7800   24.7890    8.2450 O.3   249  IDS249     -0.3863
     21  O62       44.1390   24.8990   -0.8370 O.2   251  IDS251     -0.2480
     22  O1        46.7580   26.7410    0.3190 O.3   250  SGN250     -0.3406
     23  O2S       44.7100   19.3960    2.4520 O.3   252  SGN252     -0.2626
     24  O1S       51.3090   26.3390    0.6180 O.2   251  IDS251     -0.1181
     25  C4        49.5060   26.6620    7.7430 C.3   249  IDS249      0.1267
     26  S1        49.5760   30.3780   -0.0390 S.3   250  SGN250     -0.0198
     27  C6        45.3190   30.9450   14.3620 C.2   247  IDS247      0.3367
     28  S1        48.5170   25.3360   11.9520 S.3   248  SGN248     -0.0198
     29  C1        48.7830   23.6990   -0.5510 C.3   251  IDS251      0.1916
     30  N         48.5520   29.0650   -0.0060 N.3   250  SGN250     -0.1845
     31  C5        45.9670   34.1880   17.2270 C.3   246  SGN246      0.1159
     32  C2        47.6010   25.7450    6.2860 C.3   249  IDS249      0.1684
     33  C2        48.8730   27.8860   10.9830 C.3   248  SGN248      0.1078
     34  C6        44.7180   26.8120    3.6820 C.3   250  SGN250      0.1076
     35  O1        45.4980   33.7620   14.4950 O.3   246  SGN246     -0.3406
     36  C1        46.2960   28.0610    0.5360 C.3   250  SGN250      0.1795
     37  O5S       42.9640   35.1700   20.6290 O.3   246  SGN246     -0.2311
     38  O1        48.6840   22.5640   -1.4310 O.3   251  IDS251     -0.3401
     39  O1S       47.0990   37.9430   12.2360 O.3   246  SGN246     -0.2607
     40  O5        47.5290   24.0190    0.0760 O.3   251  IDS251     -0.3314
     41  O3S       43.0160   18.4120    1.0420 O.3   252  SGN252     -0.2626
     42  C6        50.4060   31.7170    9.6590 C.3   248  SGN248      0.1076
     43  C3        48.1720   25.8720    7.6790 C.3   249  IDS249      0.1176
     44  O5S       52.0460   19.9820    0.8100 O.2   252  SGN252     -0.1181
     45  N         48.1910   26.5640   10.8900 N.3   248  SGN248     -0.1845
     46  O5        44.6590   34.3150   16.5550 O.3   246  SGN246     -0.3413
     47  O1S       45.4930   34.3810    8.4600 O.2   247  IDS247     -0.1181
     48  C1        47.4560   32.3590   11.6260 C.3   247  IDS247      0.1916
     49  O2S       46.1930   36.4720    9.4120 O.3   247  IDS247     -0.2311
     50  C4        48.3080   21.2170   -0.9510 C.3   252  SGN252      0.1176
     51  O3S       43.9150   24.8490    6.8620 O.2   249  IDS249     -0.1181
     52  C4        46.7300   35.5790   17.2000 C.3   246  SGN246      0.1180
     53  C2        46.4150   19.7010   -0.2770 C.3   252  SGN252      0.1076
     54  C5        46.5730   24.7340   -0.7850 C.3   251  IDS251      0.1863
     55  O61       51.9370   28.3700    6.2220 O.2   249  IDS249     -0.2480
     56  C5        45.6070   31.7990   13.1120 C.3   247  IDS247      0.1863
     57  O4S       51.9260   32.2220   12.8280 O.2   248  SGN248     -0.1181
     58  C6        45.6870   33.6330   18.6450 C.3   246  SGN246      0.1076
     59  O2S       50.9400   29.8230   -0.0350 O.3   250  SGN250     -0.2626
     60  C6        45.1290   24.6060   -0.1880 C.2   251  IDS251      0.3367
     61  O6S       52.1000   18.3680   -1.0010 O.2   252  SGN252     -0.1181
     62  C2        48.8450   35.8360   19.9900 C.3   245  IDS245      0.1358
     63  C1        47.4650   27.1290    5.5950 C.3   249  IDS249      0.1916
     64  O3        46.8700   28.9240   11.8410 O.3   248  SGN248     -0.3874
     65  O3S       49.8960   25.5170   12.3620 O.3   248  SGN248     -0.2626
     66  O3S       49.2540   31.0490   -1.2930 O.3   250  SGN250     -0.2626
     67  O1        46.0560   19.0570   -2.5960 O.3   252  SGN252     -0.3656
     68  O61       44.9580   24.2100    0.9690 O.3   251  IDS251     -0.4788
     69  C2        45.5180   36.1460   15.1380 C.3   246  SGN246      0.1112
     70  O6        50.9120   20.4830   -1.2420 O.3   252  SGN252     -0.2131
     71  O2S       51.2650   23.9330    0.7770 O.2   251  IDS251     -0.1181
     72  O5        48.2490   18.8620   -1.6850 O.3   252  SGN252     -0.3416
     73  N         44.9510   19.5670   -0.0190 N.3   252  SGN252     -0.1845
     74  O5S       41.8670   25.2720    2.4640 O.2   250  SGN250     -0.1181
     75  O2S       45.1340   38.9670   13.2060 O.3   246  SGN246     -0.2607
     76  C6        50.1750   20.0950   -2.3820 C.3   252  SGN252      0.1076
     77  O2S       48.3290   24.1110   11.1850 O.3   248  SGN248     -0.2626
     78  O4S       53.3630   20.4400   -1.1800 O.3   252  SGN252     -0.2311
     79  C5        49.7030   27.4760    6.4160 C.3   249  IDS249      0.1863
     80  O62       50.4730   29.7160    6.8930 O.3   249  IDS249     -0.4788
     81  O3        49.1650   36.3010   22.2950 O.3   245  IDS245     -0.3923
     82  C3        46.9110   36.0070   15.7690 C.3   246  SGN246      0.1459
     83  O1        47.5560   31.3640   10.6720 O.3   247  IDS247     -0.3401
     84  C4        45.0750   33.2840   13.2210 C.3   247  IDS247      0.1267
     85  O1S       45.1940   17.3840    1.2020 O.3   252  SGN252     -0.2626
     86  O3        44.8410   35.0750   11.5940 O.3   247  IDS247     -0.3863
     87  O5S       49.5620   31.7550   13.0590 O.3   248  SGN248     -0.2311
     88  O3        49.0230   27.2480   -1.8700 O.3   251  IDS251     -0.3863
     89  C2        47.5350   28.8750    1.0790 C.3   250  SGN250      0.1078
     90  C4        47.0990   27.7390    3.2900 C.3   250  SGN250      0.1176
     91  O3        49.2860   28.6270    2.7580 O.3   250  SGN250     -0.3874
     92  O4S       42.0790   26.3520    4.6060 O.3   250  SGN250     -0.2311
     93  C3        45.7820   34.1740   12.1660 C.3   247  IDS247      0.1176
     94  S         45.0680   25.5830    7.3370 S.O2  249  IDS249      0.2080
     95  O1S       49.2880   31.2280    1.1060 O.3   250  SGN250     -0.2626
     96  O2        48.0570   34.6900   20.3090 O.3   245  IDS245     -0.2079
     97  C3        48.6770   36.8410   21.0900 C.3   245  IDS245      0.0749
     98  O3S       47.0230   38.4230   14.5880 O.3   246  SGN246     -0.0822
     99  S         48.4660   33.3320   20.9930 S.O2  245  IDS245      0.2079
    100  S2        50.7610   31.5680   12.2610 S.O2  248  SGN248      0.2076
    101  O1S       45.4530   25.2120    8.6890 O.3   249  IDS249     -0.2311
    102  O1        48.0340   35.4900   17.7870 O.3   245  IDS245     -0.3685
    103  O6        50.4350   32.2920   10.9280 O.3   248  SGN248     -0.2131
    104  O1        47.6690   26.8750    4.2560 O.3   249  IDS249     -0.3401
    105  O3S       52.9500   25.0210   -0.5700 O.3   251  IDS251     -0.2311
    106  O5        48.4240   28.0610    6.0790 O.3   249  IDS249     -0.3314
    107  C1        46.8230   18.7400   -1.4170 C.3   252  SGN252      0.1762
    108  C5        45.8370   27.0550    2.6620 C.3   250  SGN250      0.1159
    109  O2        46.3090   25.1140    6.4120 O.3   249  IDS249     -0.2047
    110  O3        46.3850   21.9810    0.3090 O.3   252  SGN252     -0.3874
    111  S2        43.3140   34.1620   19.6600 S.O2  246  SGN246      0.2076
    112  S2        52.1900   19.7760   -0.6270 S.O2  252  SGN252      0.2076
    113  S1        46.2580   38.0760   13.4100 S.3   246  SGN246      0.0112
    114  C2        46.4600   33.3890   11.0570 C.3   247  IDS247      0.1684
    115  S2        42.5580   25.2980    3.7260 S.O2  250  SGN250      0.2076
    116  O1        49.2750   27.9630    8.6450 O.3   248  SGN248     -0.3406
    117  O5        50.5650   29.3090    9.8950 O.3   248  SGN248     -0.3413
    118  C3        46.7560   21.1220   -0.7160 C.3   252  SGN252      0.1055
    119  C1        49.9380   28.0310    9.8440 C.3   248  SGN248      0.1795
    120  O2        50.6560   25.0620   -1.3600 O.3   251  IDS251     -0.2047
    121  O5        45.3140   27.9120    1.5760 O.3   250  SGN250     -0.3413
    122  S         46.6110   35.1690    8.9400 S.O2  247  IDS247      0.2080
    123  O3S       49.5350   33.6550   21.9090 O.3   245  IDS245     -0.2311
    124  C3        47.8340   29.0030   10.8030 C.3   248  SGN248      0.1055
    125  O62       46.2200   30.5060   15.0490 O.3   247  IDS247     -0.4788
    126  C2        49.2390   24.8880   -1.4420 C.3   251  IDS251      0.1684
    127  S1        44.4460   18.6260    1.2540 S.3   252  SGN252     -0.0198
    128  C1        44.7620   34.7460   15.1990 C.3   246  SGN246      0.1796
    129  C5        49.6060   30.4060    9.7120 C.3   248  SGN248      0.1159
    130  C3        48.1550   27.9800    2.1900 C.3   250  SGN250      0.1055
    131  N         45.6450   36.5900   13.7490 N.3   246  SGN246     -0.1821
    132  C4        48.5410   30.3580   10.8620 C.3   248  SGN248      0.1176
    133  C1        48.3240   36.4860   18.7340 C.3   245  IDS245      0.0790
    134  C6        50.7640   28.5930    6.5210 C.2   249  IDS249      0.3367
    135 H          48.9597   26.3802    0.0042 H     251  IDS251      0.0649
    136 H          46.6427   26.7159   -1.7478 H     251  IDS251      0.0656
    137 H          46.7018   25.3378   12.7750 H     248  SGN248      0.2439
    138 H          48.1748   20.5495   -2.9389 H     252  SGN252      0.0648
    139 H          49.0937   25.0217    9.1329 H     249  IDS249      0.2100
    140 H          44.1859   20.2120    2.4339 H     252  SGN252      0.2439
    141 H          50.2603   25.9556    8.0204 H     249  IDS249      0.0656
    142 H          49.4692   23.4879    0.2424 H     251  IDS251      0.0939
    143 H          49.1491   28.2383    0.0150 H     250  SGN250      0.1485
    144 H          46.6261   33.5086   16.7282 H     246  SGN246      0.0648
    145 H          48.2568   25.1615    5.6741 H     249  IDS249      0.0699
    146 H          49.3509   27.9568   11.9377 H     248  SGN248      0.0554
    147 H          45.1413   26.7181    4.6602 H     250  SGN250      0.0611
    148 H          44.0358   27.6362    3.6661 H     250  SGN250      0.0611
    149 H          45.8924   28.5516   -0.3250 H     250  SGN250      0.0927
    150 H          43.4897   35.0411   21.4339 H     246  SGN246      0.2469
    151 H          47.4772   38.8071   12.0096 H     246  SGN246      0.2439
    152 H          42.5520   19.2628    1.0839 H     252  SGN252      0.2439
    153 H          49.9404   32.3920    8.9716 H     248  SGN248      0.0611
    154 H          51.4054   31.5135    9.3354 H     248  SGN248      0.0611
    155 H          47.2711   26.2300    8.1319 H     249  IDS249      0.0649
    156 H          47.1914   26.7516   10.9675 H     248  SGN248      0.1485
    157 H          48.4045   32.8156   11.8177 H     247  IDS247      0.0939
    158 H          46.9671   36.9666    9.7236 H     247  IDS247      0.2469
    159 H          48.8205   21.0191   -0.0328 H     252  SGN252      0.0650
    160 H          46.1435   36.2773   17.7597 H     246  SGN246      0.0650
    161 H          46.9382   19.4679    0.6268 H     252  SGN252      0.0554
    162 H          46.5242   24.3151   -1.7684 H     251  IDS251      0.0742
    163 H          45.0873   31.3383   12.2980 H     247  IDS247      0.0742
    164 H          45.2706   32.6504   18.5679 H     246  SGN246      0.0611
    165 H          46.6015   33.5896   19.1988 H     246  SGN246      0.0611
    166 H          51.1095   29.3879    0.8152 H     250  SGN250      0.2439
    167 H          49.8641   35.5349   19.8651 H     245  IDS245      0.0667
    168 H          46.5100   27.5701    5.7906 H     249  IDS249      0.0939
    169 H          46.4227   28.0642   11.8021 H     248  SGN248      0.2100
    170 H          49.9775   26.3406   12.8678 H     248  SGN248      0.2439
    171 H          48.3497   31.3974   -1.2504 H     250  SGN250      0.2439
    172 H          45.1101   18.9706   -2.3993 H     252  SGN252      0.2125
    173 H          45.6952   23.9758    1.4978 H     251  IDS251      0.2951
    174 H          44.9521   36.8725   15.6827 H     246  SGN246      0.0555
    175 H          44.5319   19.1785   -0.8639 H     252  SGN252      0.1485
    176 H          45.4601   39.8576   13.0028 H     246  SGN246      0.2439
    177 H          50.4100   20.7448   -3.1990 H     252  SGN252      0.0611
    178 H          50.4257   19.0895   -2.6486 H     252  SGN252      0.0611
    179 H          47.3964   24.0283   10.9313 H     248  SGN248      0.2439
    180 H          54.1657   20.0294   -0.8222 H     252  SGN252      0.2469
    181 H          50.0595   26.8032    5.6642 H     249  IDS249      0.0742
    182 H          49.5885   29.9173    7.1277 H     249  IDS249      0.2951
    183 H          49.0569   36.9503   23.0075 H     245  IDS245      0.2095
    184 H          47.4874   35.2894   15.2234 H     246  SGN246      0.0674
    185 H          44.0147   33.3130   13.0800 H     247  IDS247      0.0656
    186 H          44.9206   16.8110    1.9354 H     252  SGN252      0.2439
    187 H          44.4055   35.5786   12.2994 H     247  IDS247      0.2100
    188 H          49.6784   31.3283   13.9223 H     248  SGN248      0.2469
    189 H          48.6900   27.0664   -2.7628 H     251  IDS251      0.2100
    190 H          47.2422   29.8413    1.4332 H     250  SGN250      0.0554
    191 H          46.8065   28.6655    3.7384 H     250  SGN250      0.0650
    192 H          49.9512   28.7796    2.0687 H     250  SGN250      0.2100
    193 H          42.5744   26.3272    5.4396 H     250  SGN250      0.2469
    194 H          46.5543   34.7009   12.6865 H     247  IDS247      0.0649
    195 H          49.5116   30.7561    1.9234 H     250  SGN250      0.2439
    196 H          47.6398   37.0799   21.2000 H     245  IDS245      0.0584
    197 H          49.2230   37.7291   20.8492 H     245  IDS245      0.0584
    198 H          44.7492   25.4652    9.3066 H     249  IDS249      0.2469
    199 H          53.1205   25.8079   -1.1109 H     251  IDS251      0.2469
    200 H          46.6227   17.7293   -1.1283 H     252  SGN252      0.0925
    201 H          46.1465   26.0997    2.2925 H     250  SGN250      0.0648
    202 H          46.5912   22.8944    0.0559 H     252  SGN252      0.2100
    203 H          45.7241   32.8493   10.4984 H     247  IDS247      0.0699
    204 H          46.2448   21.3816   -1.6194 H     252  SGN252      0.0638
    205 H          50.6740   27.2626    9.9569 H     248  SGN248      0.0927
    206 H          49.8279   32.8485   22.3614 H     245  IDS245      0.2469
    207 H          47.3448   28.8932    9.8577 H     248  SGN248      0.0638
    208 H          47.1117   30.6770   14.8175 H     247  IDS247      0.2951
    209 H          48.9275   24.6491   -2.4374 H     251  IDS251      0.0699
    210 H          43.7928   34.8697   14.7628 H     246  SGN246      0.0927
    211 H          49.0569   30.3222    8.7975 H     248  SGN248      0.0648
    212 H          48.4612   27.0468    1.7653 H     250  SGN250      0.0638
    213 H          44.7094   36.5589   13.3440 H     246  SGN246      0.1486
    214 H          49.0341   30.5103   11.7993 H     248  SGN248      0.0650
    215 H          49.0651   37.1498   18.3402 H     245  IDS245      0.0587
    216 H          47.4366   37.0407   18.9568 H     245  IDS245      0.0587
@<TRIPOS>BOND
     1     1   126    1
     2     1     5    1
     3     1    88    1
     4     2    99    2
     5     3    94    2
     6     4   115    2
     7     5    22    1
     8     5    54    1
     9     6   111    2
    10     7    82    1
    11     8    27    2
    12     9   120    1
    13     9    24    2
    14     9    71    2
    15     9   105    1
    16    10    34    1
    17    10   115    1
    18    11    58    1
    19    11   111    1
    20    12   100    2
    21    13   114    1
    22    13   122    1
    23    14   122    2
    24    15    28    1
    25    16    99    2
    26    17   111    2
    27    18    48    1
    28    18    56    1
    29    19    50    1
    30    19    76    1
    31    19    72    1
    32    20    43    1
    33    21    60    2
    34    22    36    1
    35    23   127    1
    36    25   116    1
    37    25    43    1
    38    25    79    1
    39    26    30    1
    40    26    95    1
    41    26    59    1
    42    26    66    1
    43    27    56    1
    44    27   125    1
    45    28    45    1
    46    28    77    1
    47    28    65    1
    48    29   126    1
    49    29    38    1
    50    29    40    1
    51    30    89    1
    52    31    52    1
    53    31    58    1
    54    31    46    1
    55    32    63    1
    56    32    43    1
    57    32   109    1
    58    33   119    1
    59    33   124    1
    60    33    45    1
    61    34   108    1
    62    35   128    1
    63    35    84    1
    64    36    89    1
    65    36   121    1
    66    37   111    1
    67    38    50    1
    68    39   113    1
    69    40    54    1
    70    41   127    1
    71    42   129    1
    72    42   103    1
    73    44   112    2
    74    46   128    1
    75    47   122    2
    76    48   114    1
    77    48    83    1
    78    49   122    1
    79    50   118    1
    80    51    94    2
    81    52   102    1
    82    52    82    1
    83    53   107    1
    84    53   118    1
    85    53    73    1
    86    54    60    1
    87    55   134    2
    88    56    84    1
    89    57   100    2
    90    60    68    1
    91    61   112    2
    92    62   133    1
    93    62    97    1
    94    62    96    1
    95    63   104    1
    96    63   106    1
    97    64   124    1
    98    67   107    1
    99    69   128    1
   100    69    82    1
   101    69   131    1
   102    70    76    1
   103    70   112    1
   104    72   107    1
   105    73   127    1
   106    74   115    2
   107    75   113    1
   108    78   112    1
   109    79   134    1
   110    79   106    1
   111    80   134    1
   112    81    97    1
   113    83   132    1
   114    84    93    1
   115    85   127    1
   116    86    93    1
   117    87   100    1
   118    89   130    1
   119    90   104    1
   120    90   130    1
   121    90   108    1
   122    91   130    1
   123    92   115    1
   124    93   114    1
   125    94   109    1
   126    94   101    1
   127    96    99    1
   128    98   113    1
   129    99   123    1
   130   100   103    1
   131   102   133    1
   132   108   121    1
   133   110   118    1
   134   113   131    1
   135   116   119    1
   136   117   119    1
   137   117   129    1
   138   120   126    1
   139   124   132    1
   140   129   132    1
   141    98     7    1
   142     1   135    1
   143     5   136    1
   144    15   137    1
   145    19   138    1
   146    20   139    1
   147    23   140    1
   148    25   141    1
   149    29   142    1
   150    30   143    1
   151    31   144    1
   152    32   145    1
   153    33   146    1
   154    34   147    1
   155    34   148    1
   156    36   149    1
   157    37   150    1
   158    39   151    1
   159    41   152    1
   160    42   153    1
   161    42   154    1
   162    43   155    1
   163    45   156    1
   164    48   157    1
   165    49   158    1
   166    50   159    1
   167    52   160    1
   168    53   161    1
   169    54   162    1
   170    56   163    1
   171    58   164    1
   172    58   165    1
   173    59   166    1
   174    62   167    1
   175    63   168    1
   176    64   169    1
   177    65   170    1
   178    66   171    1
   179    67   172    1
   180    68   173    1
   181    69   174    1
   182    73   175    1
   183    75   176    1
   184    76   177    1
   185    76   178    1
   186    77   179    1
   187    78   180    1
   188    79   181    1
   189    80   182    1
   190    81   183    1
   191    82   184    1
   192    84   185    1
   193    85   186    1
   194    86   187    1
   195    87   188    1
   196    88   189    1
   197    89   190    1
   198    90   191    1
   199    91   192    1
   200    92   193    1
   201    93   194    1
   202    95   195    1
   203    97   196    1
   204    97   197    1
   205   101   198    1
   206   105   199    1
   207   107   200    1
   208   108   201    1
   209   110   202    1
   210   114   203    1
   211   118   204    1
   212   119   205    1
   213   123   206    1
   214   124   207    1
   215   125   208    1
   216   126   209    1
   217   128   210    1
   218   129   211    1
   219   130   212    1
   220   131   213    1
   221   132   214    1
   222   133   215    1
   223   133   216    1
