@<TRIPOS>MOLECULE
1RWC_LIGAND_1_uncharged.pdb
 47 48 0 0 0
SMALL
GASTEIGER

@<TRIPOS>ATOM
      1  N2        -1.9190   40.1280   75.5180 N.am  810  NAG810     -0.3053
      2  C7        -1.8220   39.8440   74.2270 C.2   810  NAG810      0.2104
      3  C6        -6.5800   37.5390   78.6330 C.2   809  GAD809      0.3717
      4  O5         0.4140   40.0610   78.3910 O.3   810  NAG810     -0.3414
      5  C3        -1.8090   38.5600   77.3080 C.3   810  NAG810      0.1140
      6  C2        -4.1040   36.3940   75.1640 C.3   809  GAD809      0.1466
      7  C2        -1.0380   39.5850   76.5140 C.3   810  NAG810      0.1025
      8  O6         1.4760   39.3690   80.7560 O.3   810  NAG810     -0.3924
      9  C4        -6.3920   37.1370   76.0780 C.2   809  GAD809     -0.0042
     10  C8        -3.0130   40.2470   73.3720 C.3   810  NAG810      0.0122
     11  C1        -3.7230   37.2460   76.3850 C.3   809  GAD809      0.2313
     12  O4        -1.4420   36.9090   79.0500 O.3   810  NAG810     -0.3865
     13  C6         0.8430   38.3510   80.0570 C.3   810  NAG810      0.0730
     14  C1        -0.5010   40.6760   77.4720 C.3   810  NAG810      0.1776
     15  O5        -4.5430   36.6370   77.4110 O.2   809  GAD809     -0.4539
     16  O1         0.1390   41.7270   76.7430 O.3   810  NAG810     -0.3654
     17  O6A       -7.7340   38.0890   78.6930 O.2   809  GAD809     -0.2417
     18  C5        -0.2050   39.0500   79.1880 C.3   810  NAG810      0.1130
     19  O2        -3.5210   36.8810   73.9800 O.3   809  GAD809     -0.3827
     20  C3        -5.6140   36.4270   74.9260 C.3   809  GAD809      0.1089
     21  C5        -5.9050   37.0950   77.3240 C.2   809  GAD809      0.2060
     22  O3        -2.4210   37.5900   76.4380 O.3   810  NAG810     -0.3315
     23  O7        -0.8240   39.3090   73.7720 O.2   810  NAG810     -0.2761
     24  O3        -6.0850   35.1260   74.5250 O.3   809  GAD809     -0.3848
     25  C4        -0.8220   37.9490   78.2960 C.3   810  NAG810      0.1116
     26  O6B       -5.8500   37.2560   79.6220 O.3   809  GAD809     -0.4750
     27  H         -2.6310   40.7420   75.8090 H     810  NAG810      0.1492
     28  H         -2.6240   38.9990   77.8440 H     810  NAG810      0.0644
     29  H         -3.7560   35.4060   75.3810 H     809  GAD809      0.0685
     30  H         -0.1940   39.1470   76.0230 H     810  NAG810      0.0575
     31  H          2.1590   38.9900   81.3310 H     810  NAG810      0.2095
     32  H         -7.2740   37.6350   75.8810 H     809  GAD809      0.0637
     33  H         -3.7610   40.6950   73.9920 H     810  NAG810      0.0322
     34  H         -3.4180   39.3800   72.8940 H     810  NAG810      0.0322
     35  H         -2.6970   40.9500   72.6290 H     810  NAG810      0.0322
     36  H         -3.9430   38.2910   76.4530 H     809  GAD809      0.1084
     37  H         -1.8110   36.2470   78.4450 H     810  NAG810      0.2100
     38  H          0.3740   37.6670   80.7330 H     810  NAG810      0.0584
     39  H          1.5330   37.7810   79.4700 H     810  NAG810      0.0584
     40  H         -1.3150   41.1150   78.0100 H     810  NAG810      0.0928
     41  H          0.8850   41.3640   76.2410 H     810  NAG810      0.2125
     42  H         -0.9550   39.5310   79.7800 H     810  NAG810      0.0647
     43  H         -3.8500   37.7760   73.8020 H     809  GAD809      0.2102
     44  H         -5.8330   37.0630   74.0940 H     809  GAD809      0.0667
     45  H         -5.9190   34.4880   75.2370 H     809  GAD809      0.2103
     46  H         -0.0170   37.4960   77.7560 H     810  NAG810      0.0647
     47  H         -5.0150   36.8520   79.4880 H     809  GAD809      0.2955
@<TRIPOS>BOND
     1     1     7    1
     2     1     2   am
     3     1    27    1
     4     2    10    1
     5     2    23    2
     6     3    21    1
     7     3    17    2
     8     3    26    1
     9     4    14    1
    10     4    18    1
    11     5     7    1
    12     5    25    1
    13     5    22    1
    14     5    28    1
    15     6    11    1
    16     6    19    1
    17     6    20    1
    18     6    29    1
    19     7    14    1
    20     7    30    1
    21     8    13    1
    22     8    31    1
    23     9    20    1
    24     9    21    2
    25     9    32    1
    26    10    33    1
    27    10    34    1
    28    10    35    1
    29    11    22    1
    30    11    15    1
    31    11    36    1
    32    12    25    1
    33    12    37    1
    34    13    18    1
    35    13    38    1
    36    13    39    1
    37    14    16    1
    38    14    40    1
    39    15    21    1
    40    16    41    1
    41    18    25    1
    42    18    42    1
    43    19    43    1
    44    20    24    1
    45    20    44    1
    46    24    45    1
    47    25    46    1
    48    26    47    1
