@<TRIPOS>MOLECULE
1RWF_LIGAND_1_uncharged.pdb
 100 103 0 0 0
SMALL
GASTEIGER

@<TRIPOS>ATOM
      1  N         -2.0080   40.5510   75.4860 N.am  810  ASG810     -0.3053
      2  OSA        0.7350   49.0940   75.7200 O.2   812  ASG812     -0.3452
      3  C8        -3.0640   40.5670   73.3260 C.3   810  ASG810      0.0122
      4  O3         1.7800   41.9390   79.8680 O.3   811  GCT811     -0.3864
      5  O6         1.0790   39.6620   80.7710 O.3   810  ASG810     -0.3924
      6  C4        -1.2170   38.1980   78.2350 C.3   810  ASG810      0.1419
      7  OSC        1.3240   35.4180   77.0850 O.2   810  ASG810     -0.3452
      8  O1         7.0040   48.9990   78.0210 O.3   812  ASG812     -0.3654
      9  C6        -6.6200   37.9500   78.3540 C.2   809  GAD809      0.3717
     10  C3         4.0860   46.8170   77.1810 C.3   812  ASG812      0.1155
     11  C3        -2.0560   38.9280   77.1930 C.3   810  ASG810      0.1165
     12  O4         2.7320   48.7460   77.2130 O.3   812  ASG812     -0.2460
     13  C2        -4.2320   37.0280   74.6700 C.3   809  GAD809      0.1466
     14  O7        -0.8560   39.6160   73.7970 O.2   810  ASG810     -0.2761
     15  O2         3.8790   43.9030   79.7130 O.3   811  GCT811     -0.3841
     16  S          1.4660   49.6960   76.7940 S.3   812  ASG812     -0.0004
     17  O1         0.1560   41.9540   76.9810 O.3   810  ASG810     -0.3403
     18  OSB       -1.1430   35.1430   76.6990 O.2   810  ASG810     -0.3452
     19  C8         6.7260   45.1850   80.5040 C.3   812  ASG812      0.0122
     20  C5        -5.9470   37.6040   77.0700 C.2   809  GAD809      0.2060
     21  C3        -5.7590   36.9220   74.5590 C.3   809  GAD809      0.1089
     22  O3         3.1910   46.2370   78.1460 O.3   812  ASG812     -0.3407
     23  O6A       -0.1600   46.3750   76.5210 O.2   811  GCT811     -0.2480
     24  O3        -6.1770   35.5900   74.1580 O.3   809  GAD809     -0.3848
     25  O5         0.1060   40.2460   78.5230 O.3   810  ASG810     -0.3411
     26  O6B       -5.9390   37.8850   79.4500 O.3   809  GAD809     -0.4750
     27  C2        -1.1900   39.9890   76.5290 C.3   810  ASG810      0.1028
     28  C7        -1.8680   40.1930   74.1920 C.2   810  ASG810      0.2104
     29  N          5.8900   46.4860   78.6840 N.am  812  ASG812     -0.3053
     30  C1        -0.7030   40.9850   77.5970 C.3   810  ASG810      0.1808
     31  C6        -0.3440   45.2210   77.0110 C.2   811  GCT811      0.3367
     32  O2        -3.6070   37.2720   73.3240 O.3   809  GAD809     -0.3827
     33  O3        -2.4880   37.9960   76.1700 O.3   810  ASG810     -0.3314
     34  C4         3.4150   47.8630   76.3130 C.3   812  ASG812      0.1419
     35  C5         4.4960   48.5750   75.4770 C.3   812  ASG812      0.1154
     36  C1        -3.8810   38.0010   75.8660 C.3   809  GAD809      0.2313
     37  C4        -6.5060   37.2410   75.8790 C.2   809  GAD809     -0.0042
     38  O7         6.1650   47.6190   80.6250 O.2   812  ASG812     -0.2761
     39  C4         0.7270   43.1080   78.0440 C.3   811  GCT811      0.1266
     40  C6         0.4140   38.5550   80.1810 C.3   810  ASG810      0.0731
     41  O5        -4.5280   37.7240   77.1180 O.2   809  GAD809     -0.4539
     42  OSB        0.5870   49.8910   77.8970 O.2   812  ASG812     -0.3452
     43  S         -0.1580   35.8110   77.5490 S.3   810  ASG810     -0.0004
     44  O5         5.3950   49.2690   76.3750 O.3   812  ASG812     -0.3413
     45  O5         2.0590   44.7220   76.7550 O.3   811  GCT811     -0.3315
     46  C1         2.9570   44.8640   77.8430 C.3   811  GCT811      0.1890
     47  O6A       -7.7910   38.3930   78.2400 O.2   809  GAD809     -0.2417
     48  C3         2.0410   42.7810   78.7560 C.3   811  GCT811      0.1149
     49  C6         3.9700   49.5170   74.4100 C.3   812  ASG812      0.0731
     50  O4        -0.2340   37.4470   77.4900 O.3   810  ASG810     -0.2460
     51  C2         5.1410   47.5160   78.0130 C.3   812  ASG812      0.1025
     52  OSA       -0.2640   35.5200   78.9720 O.3   810  ASG810     -0.2682
     53  O6         5.0600   49.9150   73.5780 O.3   812  ASG812     -0.3924
     54  C2         2.6280   44.1200   79.1320 C.3   811  GCT811      0.1342
     55  O6B       -1.4150   44.8590   77.5430 O.3   811  GCT811     -0.4788
     56  C5        -0.5800   39.1980   79.2200 C.3   810  ASG810      0.1155
     57  OSC        2.0520   51.1210   76.2940 O.3   812  ASG812     -0.2682
     58  C7         6.2390   46.5340   79.9830 C.2   812  ASG812      0.2104
     59  C5         0.7680   44.1700   76.9390 C.3   811  GCT811      0.1863
     60  C1         6.1090   48.3180   77.1440 C.3   812  ASG812      0.1777
     61  H         -2.6920   41.2180   75.7240 H     810  ASG810      0.1492
     62  H         -3.8000   41.0590   73.9270 H     810  ASG810      0.0322
     63  H         -3.4860   39.6810   72.8990 H     810  ASG810      0.0322
     64  H         -2.7460   41.2230   72.5430 H     810  ASG810      0.0322
     65  H          1.4060   41.1000   79.5570 H     811  GCT811      0.2100
     66  H          1.7390   39.3420   81.4060 H     810  ASG810      0.2095
     67  H         -1.8050   37.5410   78.8410 H     810  ASG810      0.0673
     68  H          7.6340   49.5200   77.4990 H     812  ASG812      0.2125
     69  H          4.4590   46.0590   76.5250 H     812  ASG812      0.0645
     70  H         -2.9080   39.3680   77.6680 H     810  ASG810      0.0645
     71  H         -3.7660   36.1050   74.9450 H     809  GAD809      0.0685
     72  H          4.2720   44.7540   79.9620 H     811  GCT811      0.2101
     73  H          6.6700   44.4590   79.7200 H     812  ASG812      0.0322
     74  H          6.1100   44.8750   81.3220 H     812  ASG812      0.0322
     75  H          7.7400   45.2750   80.8350 H     812  ASG812      0.0322
     76  H         -6.0160   37.6530   73.8210 H     809  GAD809      0.0667
     77  H         -5.9300   34.9530   74.8470 H     809  GAD809      0.2103
     78  H         -5.0690   37.5380   79.4410 H     809  GAD809      0.2955
     79  H         -0.2910   39.6160   76.0850 H     810  ASG810      0.0575
     80  H          6.1640   45.6980   78.1610 H     812  ASG812      0.1492
     81  H         -1.5360   41.4640   78.0670 H     810  ASG810      0.0930
     82  H         -3.9510   38.0990   72.9530 H     809  GAD809      0.2102
     83  H          2.7110   47.4540   75.6190 H     812  ASG812      0.0673
     84  H          5.0070   47.8120   74.9270 H     812  ASG812      0.0648
     85  H         -4.2320   38.9380   75.4870 H     809  GAD809      0.1084
     86  H         -7.5350   37.1720   75.8550 H     809  GAD809      0.0637
     87  H          0.1810   43.3210   78.9390 H     811  GCT811      0.0655
     88  H         -0.0940   37.9750   80.9230 H     810  ASG810      0.0584
     89  H          1.0860   37.8810   79.6920 H     810  ASG810      0.0584
     90  H          3.8370   44.3830   77.4690 H     811  GCT811      0.0938
     91  H          2.7380   42.2400   78.1510 H     811  GCT811      0.0648
     92  H          3.5350   50.3790   74.8720 H     812  ASG812      0.0584
     93  H          3.2220   49.0250   73.8230 H     812  ASG812      0.0584
     94  H          4.6660   48.1940   78.6910 H     812  ASG812      0.0575
     95  H          5.7330   50.3600   74.1170 H     812  ASG812      0.2095
     96  H          1.9470   44.6420   79.7710 H     811  GCT811      0.0671
     97  H         -1.4960   43.9920   77.8900 H     811  GCT811      0.2951
     98  H         -1.4010   39.5860   79.7860 H     810  ASG810      0.0648
     99  H          0.5440   43.6310   76.0420 H     811  GCT811      0.0742
    100  H          6.6390   47.6690   76.4780 H     812  ASG812      0.0928
@<TRIPOS>BOND
     1     1    27    1
     2     1    28   am
     3     1    61    1
     4     2    16    2
     5     3    28    1
     6     3    62    1
     7     3    63    1
     8     3    64    1
     9     4    48    1
    10     4    65    1
    11     5    40    1
    12     5    66    1
    13     6    11    1
    14     6    56    1
    15     6    50    1
    16     6    67    1
    17     7    43    2
    18     8    60    1
    19     8    68    1
    20     9    20    1
    21     9    47    2
    22     9    26    1
    23    10    51    1
    24    10    34    1
    25    10    22    1
    26    10    69    1
    27    11    27    1
    28    11    33    1
    29    11    70    1
    30    12    34    1
    31    12    16    1
    32    13    36    1
    33    13    32    1
    34    13    21    1
    35    13    71    1
    36    14    28    2
    37    15    54    1
    38    15    72    1
    39    16    42    2
    40    16    57    1
    41    17    30    1
    42    17    39    1
    43    18    43    2
    44    19    58    1
    45    19    73    1
    46    19    74    1
    47    19    75    1
    48    20    37    2
    49    20    41    1
    50    21    24    1
    51    21    37    1
    52    21    76    1
    53    22    46    1
    54    23    31    2
    55    24    77    1
    56    25    30    1
    57    25    56    1
    58    26    78    1
    59    27    30    1
    60    27    79    1
    61    29    51    1
    62    29    58   am
    63    29    80    1
    64    30    81    1
    65    31    59    1
    66    31    55    1
    67    32    82    1
    68    33    36    1
    69    34    35    1
    70    34    83    1
    71    35    49    1
    72    35    44    1
    73    35    84    1
    74    36    41    1
    75    36    85    1
    76    37    86    1
    77    38    58    2
    78    39    48    1
    79    39    59    1
    80    39    87    1
    81    40    56    1
    82    40    88    1
    83    40    89    1
    84    43    50    1
    85    43    52    1
    86    44    60    1
    87    45    46    1
    88    45    59    1
    89    46    54    1
    90    46    90    1
    91    48    54    1
    92    48    91    1
    93    49    53    1
    94    49    92    1
    95    49    93    1
    96    51    60    1
    97    51    94    1
    98    53    95    1
    99    54    96    1
   100    55    97    1
   101    56    98    1
   102    59    99    1
   103    60   100    1
