@<TRIPOS>MOLECULE
1RWF_LIGAND_1.pdb
 102 105 0 0 0
SMALL
GASTEIGER

@<TRIPOS>ATOM
      1  N         -2.0080   40.5510   75.4860 N.am  810  ASG810     -0.3053
      2  OSA        0.7350   49.0940   75.7200 O.2   812  ASG812     -0.1181
      3  C8        -3.0640   40.5670   73.3260 C.3   810  ASG810      0.0122
      4  O3         1.7800   41.9390   79.8680 O.3   811  GCT811     -0.3864
      5  O6         1.0790   39.6620   80.7710 O.3   810  ASG810     -0.3924
      6  C4        -1.2170   38.1980   78.2350 C.3   810  ASG810      0.1459
      7  OSC        1.3240   35.4180   77.0850 O.2   810  ASG810     -0.1181
      8  O1         7.0040   48.9990   78.0210 O.3   812  ASG812     -0.3654
      9  C6        -6.6200   37.9500   78.3540 C.2   809  GAD809      0.3717
     10  C3         4.0860   46.8170   77.1810 C.3   812  ASG812      0.1156
     11  C3        -2.0560   38.9280   77.1930 C.3   810  ASG810      0.1166
     12  O4         2.7320   48.7460   77.2130 O.3   812  ASG812     -0.2071
     13  C2        -4.2320   37.0280   74.6700 C.3   809  GAD809      0.1466
     14  O7        -0.8560   39.6160   73.7970 O.2   810  ASG810     -0.2761
     15  O2         3.8790   43.9030   79.7130 O.3   811  GCT811     -0.3841
     16  S          1.4660   49.6960   76.7940 S.O2  812  ASG812      0.2079
     17  O1         0.1560   41.9540   76.9810 O.3   810  ASG810     -0.3403
     18  OSB       -1.1430   35.1430   76.6990 O.2   810  ASG810     -0.1181
     19  C8         6.7260   45.1850   80.5040 C.3   812  ASG812      0.0122
     20  C5        -5.9470   37.6040   77.0700 C.2   809  GAD809      0.2060
     21  C3        -5.7590   36.9220   74.5590 C.3   809  GAD809      0.1089
     22  O3         3.1910   46.2370   78.1460 O.3   812  ASG812     -0.3407
     23  O6A       -0.1600   46.3750   76.5210 O.2   811  GCT811     -0.2480
     24  O3        -6.1770   35.5900   74.1580 O.3   809  GAD809     -0.3848
     25  O5         0.1060   40.2460   78.5230 O.3   810  ASG810     -0.3411
     26  O6B       -5.9390   37.8850   79.4500 O.3   809  GAD809     -0.4750
     27  C2        -1.1900   39.9890   76.5290 C.3   810  ASG810      0.1028
     28  C7        -1.8680   40.1930   74.1920 C.2   810  ASG810      0.2104
     29  N          5.8900   46.4860   78.6840 N.am  812  ASG812     -0.3053
     30  C1        -0.7030   40.9850   77.5970 C.3   810  ASG810      0.1808
     31  C6        -0.3440   45.2210   77.0110 C.2   811  GCT811      0.3367
     32  O2        -3.6070   37.2720   73.3240 O.3   809  GAD809     -0.3827
     33  O3        -2.4880   37.9960   76.1700 O.3   810  ASG810     -0.3314
     34  C4         3.4150   47.8630   76.3130 C.3   812  ASG812      0.1459
     35  C5         4.4960   48.5750   75.4770 C.3   812  ASG812      0.1156
     36  C1        -3.8810   38.0010   75.8660 C.3   809  GAD809      0.2313
     37  C4        -6.5060   37.2410   75.8790 C.2   809  GAD809     -0.0042
     38  O7         6.1650   47.6190   80.6250 O.2   812  ASG812     -0.2761
     39  C4         0.7270   43.1080   78.0440 C.3   811  GCT811      0.1266
     40  C6         0.4140   38.5550   80.1810 C.3   810  ASG810      0.0731
     41  O5        -4.5280   37.7240   77.1180 O.2   809  GAD809     -0.4539
     42  OSB        0.5870   49.8910   77.8970 O.2   812  ASG812     -0.1181
     43  S         -0.1580   35.8110   77.5490 S.O2  810  ASG810      0.2079
     44  O5         5.3950   49.2690   76.3750 O.3   812  ASG812     -0.3413
     45  O5         2.0590   44.7220   76.7550 O.3   811  GCT811     -0.3315
     46  C1         2.9570   44.8640   77.8430 C.3   811  GCT811      0.1890
     47  O6A       -7.7910   38.3930   78.2400 O.2   809  GAD809     -0.2417
     48  C3         2.0410   42.7810   78.7560 C.3   811  GCT811      0.1149
     49  C6         3.9700   49.5170   74.4100 C.3   812  ASG812      0.0731
     50  O4        -0.2340   37.4470   77.4900 O.3   810  ASG810     -0.2071
     51  C2         5.1410   47.5160   78.0130 C.3   812  ASG812      0.1025
     52  OSA       -0.2640   35.5200   78.9720 O.3   810  ASG810     -0.2311
     53  O6         5.0600   49.9150   73.5780 O.3   812  ASG812     -0.3924
     54  C2         2.6280   44.1200   79.1320 C.3   811  GCT811      0.1342
     55  O6B       -1.4150   44.8590   77.5430 O.3   811  GCT811     -0.4788
     56  C5        -0.5800   39.1980   79.2200 C.3   810  ASG810      0.1156
     57  OSC        2.0520   51.1210   76.2940 O.3   812  ASG812     -0.2311
     58  C7         6.2390   46.5340   79.9830 C.2   812  ASG812      0.2104
     59  C5         0.7680   44.1700   76.9390 C.3   811  GCT811      0.1863
     60  C1         6.1090   48.3180   77.1440 C.3   812  ASG812      0.1777
     61 H          -2.6917   41.2181   75.7243 H     810  ASG810      0.1492
     62 H          -3.7997   41.0590   73.9272 H     810  ASG810      0.0322
     63 H          -3.4863   39.6813   72.8994 H     810  ASG810      0.0322
     64 H          -2.7461   41.2234   72.5431 H     810  ASG810      0.0322
     65 H           1.4060   41.0997   79.5573 H     811  GCT811      0.2100
     66 H           1.7391   39.3419   81.4055 H     810  ASG810      0.2095
     67 H          -1.8047   37.5408   78.8413 H     810  ASG810      0.0675
     68 H           7.6344   49.5197   77.4991 H     812  ASG812      0.2125
     69 H           4.4592   46.0588   76.5247 H     812  ASG812      0.0645
     70 H          -2.9077   39.3684   77.6680 H     810  ASG810      0.0645
     71 H          -3.7662   36.1047   74.9449 H     809  GAD809      0.0685
     72 H           4.2721   44.7542   79.9615 H     811  GCT811      0.2101
     73 H           6.6696   44.4586   79.7204 H     812  ASG812      0.0322
     74 H           6.1102   44.8753   81.3224 H     812  ASG812      0.0322
     75 H           7.7397   45.2752   80.8345 H     812  ASG812      0.0322
     76 H          -6.0155   37.6533   73.8212 H     809  GAD809      0.0667
     77 H          -5.9304   34.9528   74.8465 H     809  GAD809      0.2103
     78 H          -5.0686   37.5382   79.4409 H     809  GAD809      0.2955
     79 H          -0.2908   39.6162   76.0847 H     810  ASG810      0.0575
     80 H           6.1637   45.6983   78.1607 H     812  ASG812      0.1492
     81 H          -1.5363   41.4638   78.0674 H     810  ASG810      0.0930
     82 H          -3.9512   38.0995   72.9529 H     809  GAD809      0.2102
     83 H           2.7105   47.4539   75.6192 H     812  ASG812      0.0675
     84 H           5.0068   47.8121   74.9275 H     812  ASG812      0.0648
     85 H          -4.2325   38.9378   75.4868 H     809  GAD809      0.1084
     86 H          -7.5354   37.1716   75.8548 H     809  GAD809      0.0637
     87 H           0.1813   43.3210   78.9394 H     811  GCT811      0.0655
     88 H          -0.0939   37.9755   80.9234 H     810  ASG810      0.0584
     89 H           1.0860   37.8813   79.6917 H     810  ASG810      0.0584
     90 H           3.8365   44.3825   77.4695 H     811  GCT811      0.0938
     91 H           2.7383   42.2400   78.1511 H     811  GCT811      0.0648
     92 H           3.5355   50.3788   74.8720 H     812  ASG812      0.0584
     93 H           3.2224   49.0250   73.8235 H     812  ASG812      0.0584
     94 H           4.6657   48.1941   78.6907 H     812  ASG812      0.0575
     95 H          -0.2281   34.5604   79.1093 H     810  ASG810      0.2469
     96 H           5.7326   50.3599   74.1171 H     812  ASG812      0.2095
     97 H           1.9470   44.6421   79.7712 H     811  GCT811      0.0671
     98 H          -1.4964   43.9923   77.8898 H     811  GCT811      0.2951
     99 H          -1.4006   39.5862   79.7864 H     810  ASG810      0.0648
    100 H           2.6494   50.9794   75.5430 H     812  ASG812      0.2469
    101 H           0.5444   43.6311   76.0421 H     811  GCT811      0.0742
    102 H           6.6390   47.6693   76.4783 H     812  ASG812      0.0928
@<TRIPOS>BOND
     1     1    27    1
     2     1    28   am
     3     2    16    2
     4     3    28    1
     5     4    48    1
     6     5    40    1
     7     6    11    1
     8     6    56    1
     9     6    50    1
    10     7    43    2
    11     8    60    1
    12     9    20    1
    13     9    47    2
    14     9    26    1
    15    10    51    1
    16    10    34    1
    17    10    22    1
    18    11    27    1
    19    11    33    1
    20    12    34    1
    21    12    16    1
    22    13    36    1
    23    13    32    1
    24    13    21    1
    25    14    28    2
    26    15    54    1
    27    16    42    2
    28    16    57    1
    29    17    30    1
    30    17    39    1
    31    18    43    2
    32    19    58    1
    33    20    37    2
    34    20    41    1
    35    21    24    1
    36    21    37    1
    37    22    46    1
    38    23    31    2
    39    25    30    1
    40    25    56    1
    41    27    30    1
    42    29    51    1
    43    29    58   am
    44    31    59    1
    45    31    55    1
    46    33    36    1
    47    34    35    1
    48    35    49    1
    49    35    44    1
    50    36    41    1
    51    38    58    2
    52    39    48    1
    53    39    59    1
    54    40    56    1
    55    43    50    1
    56    43    52    1
    57    44    60    1
    58    45    46    1
    59    45    59    1
    60    46    54    1
    61    48    54    1
    62    49    53    1
    63    51    60    1
    64     1    61    1
    65     3    62    1
    66     3    63    1
    67     3    64    1
    68     4    65    1
    69     5    66    1
    70     6    67    1
    71     8    68    1
    72    10    69    1
    73    11    70    1
    74    13    71    1
    75    15    72    1
    76    19    73    1
    77    19    74    1
    78    19    75    1
    79    21    76    1
    80    24    77    1
    81    26    78    1
    82    27    79    1
    83    29    80    1
    84    30    81    1
    85    32    82    1
    86    34    83    1
    87    35    84    1
    88    36    85    1
    89    37    86    1
    90    39    87    1
    91    40    88    1
    92    40    89    1
    93    46    90    1
    94    48    91    1
    95    49    92    1
    96    49    93    1
    97    51    94    1
    98    52    95    1
    99    53    96    1
   100    54    97    1
   101    55    98    1
   102    56    99    1
   103    57   100    1
   104    59   101    1
   105    60   102    1
