@<TRIPOS>MOLECULE
1RWG_LIGAND_1.pdb
 102 105 0 0 0
SMALL
GASTEIGER

@<TRIPOS>ATOM
      1  O5        -4.0780   37.3290   76.2650 O.2   809  GAD809     -0.4539
      2  C6         4.4380   49.2270   73.6040 C.3   812  ASG812      0.0731
      3  S          1.9010   49.4520   75.9000 S.O2  812  ASG812      0.2079
      4  O6A       -7.4220   38.0230   77.4660 O.2   809  GAD809     -0.2417
      5  O6         1.5000   39.4230   79.8750 O.3   810  ASG810     -0.3924
      6  C4        -0.8100   37.9750   77.4260 C.3   810  ASG810      0.1459
      7  O3        -5.8310   35.4010   73.3740 O.3   809  GAD809     -0.3848
      8  C8        -2.6390   40.3900   72.5110 C.3   810  ASG810      0.0122
      9  O6B       -0.8510   45.0440   77.1390 O.2   811  GCT811     -0.2480
     10  C3         2.3950   42.6010   77.8810 C.3   811  GCT811      0.1149
     11  C3        -5.3760   36.7280   73.7490 C.3   809  GAD809      0.1089
     12  C2         5.5450   47.2340   77.2200 C.3   812  ASG812      0.1025
     13  OSA        1.1950   48.9620   74.7530 O.2   812  ASG812     -0.1181
     14  C5        -0.1650   38.9720   78.4080 C.3   810  ASG810      0.1156
     15  O4         0.1580   37.2460   76.6510 O.3   810  ASG810     -0.2071
     16  O1         7.4620   48.7080   77.2070 O.3   812  ASG812     -0.3654
     17  OSC        2.5200   50.8750   75.5410 O.3   812  ASG812     -0.2311
     18  O6B       -5.4990   37.8860   78.5980 O.3   809  GAD809     -0.4750
     19  C7        -1.5050   40.0150   73.4030 C.2   810  ASG810      0.2104
     20  O6A        0.4500   46.4060   75.9760 O.3   811  GCT811     -0.4788
     21  C1         6.5240   48.0450   76.3710 C.3   812  ASG812      0.1777
     22  OSC        1.6620   35.2190   76.2160 O.2   810  ASG810     -0.1181
     23  N          6.1930   46.1930   77.9710 N.am  812  ASG812     -0.3053
     24  C3        -1.6690   38.7030   76.4180 C.3   810  ASG810      0.1166
     25  C6        -6.2070   37.8000   77.5350 C.2   809  GAD809      0.3717
     26  O2        -3.2450   37.0710   72.5710 O.3   809  GAD809     -0.3827
     27  O5         2.4750   44.4680   75.9300 O.3   811  GCT811     -0.3315
     28  C2        -3.8520   36.7680   73.8660 C.3   809  GAD809      0.1466
     29  OSB       -0.8500   35.0300   76.0020 O.2   810  ASG810     -0.1181
     30  C1        -0.3280   40.7620   76.7960 C.3   810  ASG810      0.1808
     31  C4         1.0350   43.0080   77.3070 C.3   811  GCT811      0.1266
     32  O3         2.1980   41.8100   79.0370 O.3   811  GCT811     -0.3864
     33  O6         5.4940   49.8080   72.8420 O.3   812  ASG812     -0.3924
     34  C5         4.9400   48.3350   74.7220 C.3   812  ASG812      0.1156
     35  O7        -0.5120   39.4410   72.9660 O.2   810  ASG810     -0.2761
     36  O5         5.7580   49.0220   75.6960 O.3   812  ASG812     -0.3413
     37  C5        -5.5060   37.4330   76.2180 C.2   809  GAD809      0.2060
     38  OSB        0.9760   49.6110   76.9770 O.2   812  ASG812     -0.1181
     39  C1        -3.4560   37.7140   75.0260 C.3   809  GAD809      0.2313
     40  C7         6.5450   46.3530   79.2520 C.2   812  ASG812      0.2104
     41  O7         6.5810   47.4740   79.7730 O.2   812  ASG812     -0.2761
     42  O1         0.5130   41.7260   76.1690 O.3   810  ASG810     -0.3403
     43  C3         4.4860   46.5800   76.3590 C.3   812  ASG812      0.1156
     44  O4         3.0780   48.4350   76.3660 O.3   812  ASG812     -0.2071
     45  N         -1.6550   40.3230   74.6970 N.am  810  ASG810     -0.3053
     46  C1         3.4220   44.6600   76.9880 C.3   811  GCT811      0.1890
     47  O5         0.5090   40.0400   77.7100 O.3   810  ASG810     -0.3411
     48  C5         1.1030   44.0570   76.1940 C.3   811  GCT811      0.1863
     49  C2        -0.8200   39.7620   75.7340 C.3   810  ASG810      0.1028
     50  O2         4.2690   43.6620   78.9270 O.3   811  GCT811     -0.3841
     51  C6         0.8320   38.3030   79.3420 C.3   810  ASG810      0.0731
     52  C4         3.8180   47.6000   75.4720 C.3   812  ASG812      0.1459
     53  O3        -2.1900   37.7680   75.4500 O.3   810  ASG810     -0.3314
     54  S          0.2270   35.6180   76.7880 S.O2  810  ASG810      0.2079
     55  C4        -6.0940   37.2620   75.0190 C.2   809  GAD809     -0.0042
     56  C8         6.9130   45.0610   79.9470 C.3   812  ASG812      0.0122
     57  C6         0.1870   45.2520   76.4520 C.2   811  GCT811      0.3367
     58  OSA        0.1750   35.2960   78.2100 O.3   810  ASG810     -0.2311
     59  O3         3.5870   46.0300   77.3110 O.3   812  ASG812     -0.3407
     60  C2         3.0670   43.9040   78.2560 C.3   811  GCT811      0.1342
     61 H           3.8525   50.0139   74.0317 H     812  ASG812      0.0584
     62 H           3.8609   48.6171   72.9407 H     812  ASG812      0.0584
     63 H           2.1788   39.1268   80.5014 H     810  ASG810      0.2095
     64 H          -1.3744   37.3040   78.0393 H     810  ASG810      0.0675
     65 H          -5.3574   35.1094   72.5793 H     809  GAD809      0.2103
     66 H          -3.3986   40.8776   73.0856 H     810  ASG810      0.0322
     67 H          -3.0440   39.5086   72.0593 H     810  ASG810      0.0322
     68 H          -2.2883   41.0530   71.7479 H     810  ASG810      0.0322
     69 H           2.9799   42.0319   77.1890 H     811  GCT811      0.0648
     70 H          -5.6495   37.4005   72.9630 H     809  GAD809      0.0667
     71 H           5.1053   47.9369   77.8964 H     812  ASG812      0.0575
     72 H          -0.9712   39.3691   78.9887 H     810  ASG810      0.0648
     73 H           7.9967   48.0501   77.6783 H     812  ASG812      0.2125
     74 H           3.1502   50.7783   74.8100 H     812  ASG812      0.2469
     75 H          -4.5812   37.6998   78.5660 H     809  GAD809      0.2955
     76 H           1.2266   46.5376   75.4686 H     811  GCT811      0.2951
     77 H           7.0543   47.4077   75.6945 H     812  ASG812      0.0928
     78 H           6.3839   45.3346   77.5283 H     812  ASG812      0.1492
     79 H          -2.4969   39.1709   76.9085 H     810  ASG810      0.0645
     80 H          -3.5512   36.4284   71.9121 H     809  GAD809      0.2102
     81 H          -3.4571   35.8077   74.1244 H     809  GAD809      0.0685
     82 H          -1.1626   41.2274   77.2774 H     810  ASG810      0.0930
     83 H           0.4697   43.2689   78.1772 H     811  GCT811      0.0655
     84 H           1.6688   42.3055   79.6815 H     811  GCT811      0.2100
     85 H           6.0372   50.3689   73.4175 H     812  ASG812      0.2095
     86 H           5.5449   47.6203   74.2041 H     812  ASG812      0.0648
     87 H          -3.7402   38.6322   74.5558 H     809  GAD809      0.1084
     88 H           4.8724   45.8392   75.6905 H     812  ASG812      0.0645
     89 H          -2.3630   40.9576   74.9524 H     810  ASG810      0.1492
     90 H           4.3399   44.2652   76.6052 H     811  GCT811      0.0938
     91 H           0.7331   43.5863   75.3071 H     811  GCT811      0.0742
     92 H           0.0713   39.3898   75.2735 H     810  ASG810      0.0575
     93 H           4.0891   43.1781   79.7482 H     811  GCT811      0.2101
     94 H           0.3373   37.7408   80.1063 H     810  ASG810      0.0584
     95 H           1.4751   37.5941   78.8637 H     810  ASG810      0.0584
     96 H           3.1507   47.2073   74.7335 H     812  ASG812      0.0675
     97 H          -7.0941   37.5031   74.9377 H     809  GAD809      0.0637
     98 H           6.7920   44.2434   79.2674 H     812  ASG812      0.0322
     99 H           6.2756   44.9177   80.7944 H     812  ASG812      0.0322
    100 H           7.9317   45.1078   80.2709 H     812  ASG812      0.0322
    101 H           0.9193   35.7201   78.6650 H     810  ASG810      0.2469
    102 H           2.3959   44.4579   78.8787 H     811  GCT811      0.0671
@<TRIPOS>BOND
     1     1    39    1
     2     1    37    1
     3     2    34    1
     4     2    33    1
     5     3    44    1
     6     3    13    2
     7     3    38    2
     8     3    17    1
     9     4    25    2
    10     5    51    1
    11     6    24    1
    12     6    14    1
    13     6    15    1
    14     7    11    1
    15     8    19    1
    16     9    57    2
    17    10    60    1
    18    10    32    1
    19    10    31    1
    20    11    28    1
    21    11    55    1
    22    12    21    1
    23    12    43    1
    24    12    23    1
    25    14    51    1
    26    14    47    1
    27    15    54    1
    28    16    21    1
    29    18    25    1
    30    19    45   am
    31    19    35    2
    32    20    57    1
    33    21    36    1
    34    22    54    2
    35    23    40   am
    36    24    49    1
    37    24    53    1
    38    25    37    1
    39    26    28    1
    40    27    46    1
    41    27    48    1
    42    28    39    1
    43    29    54    2
    44    30    49    1
    45    30    42    1
    46    30    47    1
    47    31    42    1
    48    31    48    1
    49    34    52    1
    50    34    36    1
    51    37    55    2
    52    39    53    1
    53    40    56    1
    54    40    41    2
    55    43    52    1
    56    43    59    1
    57    44    52    1
    58    45    49    1
    59    46    60    1
    60    46    59    1
    61    48    57    1
    62    50    60    1
    63    54    58    1
    64     2    61    1
    65     2    62    1
    66     5    63    1
    67     6    64    1
    68     7    65    1
    69     8    66    1
    70     8    67    1
    71     8    68    1
    72    10    69    1
    73    11    70    1
    74    12    71    1
    75    14    72    1
    76    16    73    1
    77    17    74    1
    78    18    75    1
    79    20    76    1
    80    21    77    1
    81    23    78    1
    82    24    79    1
    83    26    80    1
    84    28    81    1
    85    30    82    1
    86    31    83    1
    87    32    84    1
    88    33    85    1
    89    34    86    1
    90    39    87    1
    91    43    88    1
    92    45    89    1
    93    46    90    1
    94    48    91    1
    95    49    92    1
    96    50    93    1
    97    51    94    1
    98    51    95    1
    99    52    96    1
   100    55    97    1
   101    56    98    1
   102    56    99    1
   103    56   100    1
   104    58   101    1
   105    60   102    1
