@<TRIPOS>MOLECULE
1RWG_LIGAND_1_uncharged.pdb
 100 103 0 0 0
SMALL
GASTEIGER

@<TRIPOS>ATOM
      1  O5        -4.0780   37.3290   76.2650 O.2   809  GAD809     -0.4539
      2  C6         4.4380   49.2270   73.6040 C.3   812  ASG812      0.0731
      3  S          1.9010   49.4520   75.9000 S.3   812  ASG812     -0.0004
      4  O6A       -7.4220   38.0230   77.4660 O.2   809  GAD809     -0.2417
      5  O6         1.5000   39.4230   79.8750 O.3   810  ASG810     -0.3924
      6  C4        -0.8100   37.9750   77.4260 C.3   810  ASG810      0.1419
      7  O3        -5.8310   35.4010   73.3740 O.3   809  GAD809     -0.3848
      8  C8        -2.6390   40.3900   72.5110 C.3   810  ASG810      0.0122
      9  O6B       -0.8510   45.0440   77.1390 O.2   811  GCT811     -0.2480
     10  C3         2.3950   42.6010   77.8810 C.3   811  GCT811      0.1149
     11  C3        -5.3760   36.7280   73.7490 C.3   809  GAD809      0.1089
     12  C2         5.5450   47.2340   77.2200 C.3   812  ASG812      0.1025
     13  OSA        1.1950   48.9620   74.7530 O.2   812  ASG812     -0.3452
     14  C5        -0.1650   38.9720   78.4080 C.3   810  ASG810      0.1155
     15  O4         0.1580   37.2460   76.6510 O.3   810  ASG810     -0.2460
     16  O1         7.4620   48.7080   77.2070 O.3   812  ASG812     -0.3654
     17  OSC        2.5200   50.8750   75.5410 O.3   812  ASG812     -0.2682
     18  O6B       -5.4990   37.8860   78.5980 O.3   809  GAD809     -0.4750
     19  C7        -1.5050   40.0150   73.4030 C.2   810  ASG810      0.2104
     20  O6A        0.4500   46.4060   75.9760 O.3   811  GCT811     -0.4788
     21  C1         6.5240   48.0450   76.3710 C.3   812  ASG812      0.1777
     22  OSC        1.6620   35.2190   76.2160 O.2   810  ASG810     -0.3452
     23  N          6.1930   46.1930   77.9710 N.am  812  ASG812     -0.3053
     24  C3        -1.6690   38.7030   76.4180 C.3   810  ASG810      0.1165
     25  C6        -6.2070   37.8000   77.5350 C.2   809  GAD809      0.3717
     26  O2        -3.2450   37.0710   72.5710 O.3   809  GAD809     -0.3827
     27  O5         2.4750   44.4680   75.9300 O.3   811  GCT811     -0.3315
     28  C2        -3.8520   36.7680   73.8660 C.3   809  GAD809      0.1466
     29  OSB       -0.8500   35.0300   76.0020 O.2   810  ASG810     -0.3452
     30  C1        -0.3280   40.7620   76.7960 C.3   810  ASG810      0.1808
     31  C4         1.0350   43.0080   77.3070 C.3   811  GCT811      0.1266
     32  O3         2.1980   41.8100   79.0370 O.3   811  GCT811     -0.3864
     33  O6         5.4940   49.8080   72.8420 O.3   812  ASG812     -0.3924
     34  C5         4.9400   48.3350   74.7220 C.3   812  ASG812      0.1154
     35  O7        -0.5120   39.4410   72.9660 O.2   810  ASG810     -0.2761
     36  O5         5.7580   49.0220   75.6960 O.3   812  ASG812     -0.3413
     37  C5        -5.5060   37.4330   76.2180 C.2   809  GAD809      0.2060
     38  OSB        0.9760   49.6110   76.9770 O.2   812  ASG812     -0.3452
     39  C1        -3.4560   37.7140   75.0260 C.3   809  GAD809      0.2313
     40  C7         6.5450   46.3530   79.2520 C.2   812  ASG812      0.2104
     41  O7         6.5810   47.4740   79.7730 O.2   812  ASG812     -0.2761
     42  O1         0.5130   41.7260   76.1690 O.3   810  ASG810     -0.3403
     43  C3         4.4860   46.5800   76.3590 C.3   812  ASG812      0.1155
     44  O4         3.0780   48.4350   76.3660 O.3   812  ASG812     -0.2460
     45  N         -1.6550   40.3230   74.6970 N.am  810  ASG810     -0.3053
     46  C1         3.4220   44.6600   76.9880 C.3   811  GCT811      0.1890
     47  O5         0.5090   40.0400   77.7100 O.3   810  ASG810     -0.3411
     48  C5         1.1030   44.0570   76.1940 C.3   811  GCT811      0.1863
     49  C2        -0.8200   39.7620   75.7340 C.3   810  ASG810      0.1028
     50  O2         4.2690   43.6620   78.9270 O.3   811  GCT811     -0.3841
     51  C6         0.8320   38.3030   79.3420 C.3   810  ASG810      0.0731
     52  C4         3.8180   47.6000   75.4720 C.3   812  ASG812      0.1419
     53  O3        -2.1900   37.7680   75.4500 O.3   810  ASG810     -0.3314
     54  S          0.2270   35.6180   76.7880 S.3   810  ASG810     -0.0004
     55  C4        -6.0940   37.2620   75.0190 C.2   809  GAD809     -0.0042
     56  C8         6.9130   45.0610   79.9470 C.3   812  ASG812      0.0122
     57  C6         0.1870   45.2520   76.4520 C.2   811  GCT811      0.3367
     58  OSA        0.1750   35.2960   78.2100 O.3   810  ASG810     -0.2682
     59  O3         3.5870   46.0300   77.3110 O.3   812  ASG812     -0.3407
     60  C2         3.0670   43.9040   78.2560 C.3   811  GCT811      0.1342
     61  H          3.8530   50.0140   74.0320 H     812  ASG812      0.0584
     62  H          3.8610   48.6170   72.9410 H     812  ASG812      0.0584
     63  H          2.1790   39.1270   80.5010 H     810  ASG810      0.2095
     64  H         -1.3740   37.3040   78.0390 H     810  ASG810      0.0673
     65  H         -5.3570   35.1090   72.5790 H     809  GAD809      0.2103
     66  H         -3.3990   40.8780   73.0860 H     810  ASG810      0.0322
     67  H         -3.0440   39.5090   72.0590 H     810  ASG810      0.0322
     68  H         -2.2880   41.0530   71.7480 H     810  ASG810      0.0322
     69  H          2.9800   42.0320   77.1890 H     811  GCT811      0.0648
     70  H         -5.6490   37.4010   72.9630 H     809  GAD809      0.0667
     71  H          5.1050   47.9370   77.8960 H     812  ASG812      0.0575
     72  H         -0.9710   39.3690   78.9890 H     810  ASG810      0.0648
     73  H          7.9970   48.0500   77.6780 H     812  ASG812      0.2125
     74  H         -4.5810   37.7000   78.5660 H     809  GAD809      0.2955
     75  H          1.2270   46.5380   75.4690 H     811  GCT811      0.2951
     76  H          7.0540   47.4080   75.6950 H     812  ASG812      0.0928
     77  H          6.3840   45.3350   77.5280 H     812  ASG812      0.1492
     78  H         -2.4970   39.1710   76.9090 H     810  ASG810      0.0645
     79  H         -3.5510   36.4280   71.9120 H     809  GAD809      0.2102
     80  H         -3.4570   35.8080   74.1240 H     809  GAD809      0.0685
     81  H         -1.1630   41.2270   77.2770 H     810  ASG810      0.0930
     82  H          0.4700   43.2690   78.1770 H     811  GCT811      0.0655
     83  H          1.6690   42.3060   79.6810 H     811  GCT811      0.2100
     84  H          6.0370   50.3690   73.4180 H     812  ASG812      0.2095
     85  H          5.5450   47.6200   74.2040 H     812  ASG812      0.0648
     86  H         -3.7400   38.6320   74.5560 H     809  GAD809      0.1084
     87  H          4.8720   45.8390   75.6910 H     812  ASG812      0.0645
     88  H         -2.3630   40.9580   74.9520 H     810  ASG810      0.1492
     89  H          4.3400   44.2650   76.6050 H     811  GCT811      0.0938
     90  H          0.7330   43.5860   75.3070 H     811  GCT811      0.0742
     91  H          0.0710   39.3900   75.2730 H     810  ASG810      0.0575
     92  H          4.0890   43.1780   79.7480 H     811  GCT811      0.2101
     93  H          0.3370   37.7410   80.1060 H     810  ASG810      0.0584
     94  H          1.4750   37.5940   78.8640 H     810  ASG810      0.0584
     95  H          3.1510   47.2070   74.7340 H     812  ASG812      0.0673
     96  H         -7.0940   37.5030   74.9380 H     809  GAD809      0.0637
     97  H          6.7920   44.2430   79.2670 H     812  ASG812      0.0322
     98  H          6.2760   44.9180   80.7940 H     812  ASG812      0.0322
     99  H          7.9320   45.1080   80.2710 H     812  ASG812      0.0322
    100  H          2.3960   44.4580   78.8790 H     811  GCT811      0.0671
@<TRIPOS>BOND
     1     1    39    1
     2     1    37    1
     3     2    34    1
     4     2    33    1
     5     2    61    1
     6     2    62    1
     7     3    44    1
     8     3    13    2
     9     3    38    2
    10     3    17    1
    11     4    25    2
    12     5    51    1
    13     5    63    1
    14     6    24    1
    15     6    14    1
    16     6    15    1
    17     6    64    1
    18     7    11    1
    19     7    65    1
    20     8    19    1
    21     8    66    1
    22     8    67    1
    23     8    68    1
    24     9    57    2
    25    10    60    1
    26    10    32    1
    27    10    31    1
    28    10    69    1
    29    11    28    1
    30    11    55    1
    31    11    70    1
    32    12    21    1
    33    12    43    1
    34    12    23    1
    35    12    71    1
    36    14    51    1
    37    14    47    1
    38    14    72    1
    39    15    54    1
    40    16    21    1
    41    16    73    1
    42    18    25    1
    43    18    74    1
    44    19    45   am
    45    19    35    2
    46    20    57    1
    47    20    75    1
    48    21    36    1
    49    21    76    1
    50    22    54    2
    51    23    40   am
    52    23    77    1
    53    24    49    1
    54    24    53    1
    55    24    78    1
    56    25    37    1
    57    26    28    1
    58    26    79    1
    59    27    46    1
    60    27    48    1
    61    28    39    1
    62    28    80    1
    63    29    54    2
    64    30    49    1
    65    30    42    1
    66    30    47    1
    67    30    81    1
    68    31    42    1
    69    31    48    1
    70    31    82    1
    71    32    83    1
    72    33    84    1
    73    34    52    1
    74    34    36    1
    75    34    85    1
    76    37    55    2
    77    39    53    1
    78    39    86    1
    79    40    56    1
    80    40    41    2
    81    43    52    1
    82    43    59    1
    83    43    87    1
    84    44    52    1
    85    45    49    1
    86    45    88    1
    87    46    60    1
    88    46    59    1
    89    46    89    1
    90    48    57    1
    91    48    90    1
    92    49    91    1
    93    50    60    1
    94    50    92    1
    95    51    93    1
    96    51    94    1
    97    52    95    1
    98    54    58    1
    99    55    96    1
   100    56    97    1
   101    56    98    1
   102    56    99    1
   103    60   100    1
