@<TRIPOS>MOLECULE
1RWH_LIGAND_1.pdb
 102 105 0 0 0
SMALL
GASTEIGER

@<TRIPOS>ATOM
      1  O5         2.2660   44.4800   75.8000 O.3   811  GCT811     -0.3315
      2  OSB       -1.4060   35.1560   76.9510 O.2   810  ASG810     -0.1181
      3  C4        -6.2240   36.9230   75.1630 C.2   809  GAD809     -0.0042
      4  N         -1.7550   40.2250   74.5620 N.am  810  ASG810     -0.3053
      5  C4        -0.9150   38.0490   77.4250 C.3   810  ASG810      0.1459
      6  O7         6.3590   47.3150   79.7930 O.2   812  ASG812     -0.2761
      7  O5         0.4860   40.0040   77.4960 O.3   810  ASG810     -0.3411
      8  C6        -0.2000   45.1000   75.9220 C.2   811  GCT811      0.3367
      9  C8         6.7880   44.9150   79.8690 C.3   812  ASG812      0.0122
     10  C3        -5.4810   36.6360   73.8500 C.3   809  GAD809      0.1089
     11  C6        -6.3680   37.5480   77.5620 C.2   809  GAD809      0.3717
     12  C1         3.2210   44.6310   76.8410 C.3   811  GCT811      0.1890
     13  O6B       -1.3420   44.7030   76.2120 O.3   811  GCT811     -0.4788
     14  OSC        2.3780   50.9390   75.4590 O.2   812  ASG812     -0.1181
     15  O1         0.4800   41.5860   75.8700 O.3   810  ASG810     -0.3403
     16  C2         5.5410   47.1110   77.0990 C.3   812  ASG812      0.1025
     17  C1         6.5490   47.9690   76.3120 C.3   812  ASG812      0.1777
     18  O4         0.0900   37.2210   76.7420 O.3   810  ASG810     -0.2071
     19  O6B       -5.6860   37.4520   78.6220 O.3   809  GAD809     -0.4750
     20  C6         4.3900   49.1050   73.4470 C.3   812  ASG812      0.0731
     21  C2         2.8570   44.0010   78.1670 C.3   811  GCT811      0.1342
     22  O3         3.5420   45.9660   77.1910 O.3   812  ASG812     -0.3407
     23  O3        -2.2430   37.6630   75.4560 O.3   810  ASG810     -0.3314
     24  S          1.8870   49.4400   75.7320 S.O2  812  ASG812      0.2079
     25  O6A       -7.5780   37.8890   77.4830 O.2   809  GAD809     -0.2417
     26  C5        -0.2510   39.0850   78.3440 C.3   810  ASG810      0.1156
     27  C6         0.7180   38.4030   79.2560 C.3   810  ASG810      0.0731
     28  C4         0.8500   43.0490   77.1390 C.3   811  GCT811      0.1266
     29  OSA        0.4840   35.4260   78.3440 O.2   810  ASG810     -0.1181
     30  C5        -5.6620   37.2750   76.3110 C.2   809  GAD809      0.2060
     31  C5         0.9190   44.0440   75.9830 C.3   811  GCT811      0.1863
     32  O3         2.2110   41.8200   78.7140 O.3   811  GCT811     -0.3864
     33  O6A        0.0300   46.2680   75.5320 O.2   811  GCT811     -0.2480
     34  OSC        0.9180   35.0480   75.8840 O.3   810  ASG810     -0.2311
     35  C3         4.4230   46.5110   76.2400 C.3   812  ASG812      0.1156
     36  C5         4.8750   48.2150   74.5760 C.3   812  ASG812      0.1156
     37  C7         6.4130   46.2130   79.2210 C.2   812  ASG812      0.2104
     38  C1        -3.6530   37.7310   75.1550 C.3   809  GAD809      0.2313
     39  O6         1.3060   39.3890   79.9570 O.3   810  ASG810     -0.3924
     40  C3         2.2300   42.6920   77.6930 C.3   811  GCT811      0.1149
     41  C4         3.7500   47.5580   75.3950 C.3   812  ASG812      0.1459
     42  O4         3.0670   48.4710   76.2620 O.3   812  ASG812     -0.2071
     43  C2        -3.9880   36.6740   74.1150 C.3   809  GAD809      0.1466
     44  C1        -0.3470   40.7010   76.5910 C.3   810  ASG810      0.1808
     45  O3        -5.8530   35.3460   73.3360 O.3   809  GAD809     -0.3848
     46  C7        -1.5870   40.0170   73.2250 C.2   810  ASG810      0.2104
     47  N          6.1570   46.0780   77.9240 N.am  812  ASG812     -0.3053
     48  C3        -1.7720   38.6870   76.3730 C.3   810  ASG810      0.1166
     49  O6         5.4220   49.7970   72.7690 O.3   812  ASG812     -0.3924
     50  O7        -0.5810   39.3980   72.8270 O.2   810  ASG810     -0.2761
     51  O2        -3.3210   36.9860   72.8690 O.3   809  GAD809     -0.3827
     52  O5        -4.2720   37.4130   76.3750 O.2   809  GAD809     -0.4539
     53  O1         7.3370   48.6810   77.2640 O.3   812  ASG812     -0.3654
     54  OSA        1.3560   48.9760   74.4790 O.2   812  ASG812     -0.1181
     55  S          0.0350   35.6170   76.9870 S.O2  810  ASG810      0.2079
     56  C8        -2.6910   40.3920   72.3440 C.3   810  ASG810      0.0122
     57  O5         5.7970   48.8710   75.4970 O.3   812  ASG812     -0.3413
     58  O2         4.0680   43.5730   78.7240 O.3   811  GCT811     -0.3841
     59  C2        -0.9130   39.6790   75.6070 C.3   810  ASG810      0.1028
     60  OSB        0.8780   49.4590   76.7100 O.3   812  ASG812     -0.2311
     61 H          -7.2521   36.8340   75.1506 H     809  GAD809      0.0637
     62 H          -2.5100   40.7924   74.8399 H     810  ASG810      0.1492
     63 H          -1.5265   37.4457   78.0629 H     810  ASG810      0.0675
     64 H           6.9831   45.0785   80.9083 H     812  ASG812      0.0322
     65 H           7.6652   44.5220   79.3989 H     812  ASG812      0.0322
     66 H           5.9835   44.2177   79.7625 H     812  ASG812      0.0322
     67 H          -5.7423   37.3768   73.1235 H     809  GAD809      0.0667
     68 H           4.0422   44.1292   76.3732 H     811  GCT811      0.0938
     69 H          -1.4723   43.8210   76.5001 H     811  GCT811      0.2951
     70 H           5.0874   47.8198   77.7599 H     812  ASG812      0.0575
     71 H           7.1918   47.3825   75.6894 H     812  ASG812      0.0928
     72 H          -4.7876   37.1892   78.5789 H     809  GAD809      0.2955
     73 H           3.7142   49.8270   73.8556 H     812  ASG812      0.0584
     74 H           3.9261   48.4632   72.7274 H     812  ASG812      0.0584
     75 H           2.2804   44.6203   78.8218 H     811  GCT811      0.0671
     76 H          -0.9895   39.5928   78.9285 H     810  ASG810      0.0648
     77 H           1.4464   37.8608   78.6899 H     810  ASG810      0.0584
     78 H           0.2316   37.6965   79.8956 H     810  ASG810      0.0584
     79 H           0.2372   43.3101   77.9764 H     811  GCT811      0.0655
     80 H           0.6572   43.5261   75.0840 H     811  GCT811      0.0742
     81 H           3.1190   41.6458   79.0073 H     811  GCT811      0.2100
     82 H           0.5181   35.2358   75.0205 H     810  ASG810      0.2469
     83 H           4.7800   45.7850   75.5397 H     812  ASG812      0.0645
     84 H           5.4022   47.4480   74.0481 H     812  ASG812      0.0648
     85 H          -3.9624   38.6802   74.7699 H     809  GAD809      0.1084
     86 H           1.7352   40.0084   79.3462 H     810  ASG810      0.2095
     87 H           2.7846   42.2081   76.9163 H     811  GCT811      0.0648
     88 H           3.0106   47.1698   74.7261 H     812  ASG812      0.0675
     89 H          -3.6637   35.7262   74.4911 H     809  GAD809      0.0685
     90 H          -1.1337   41.2229   77.0946 H     810  ASG810      0.0930
     91 H          -5.6227   34.6613   73.9834 H     809  GAD809      0.2103
     92 H           6.3985   45.2266   77.4926 H     812  ASG812      0.1492
     93 H          -2.6102   39.1793   76.8202 H     810  ASG810      0.0645
     94 H           5.8718   50.3936   73.3876 H     812  ASG812      0.2095
     95 H          -3.6278   37.8472   72.5448 H     809  GAD809      0.2102
     96 H           6.7569   49.2138   77.8301 H     812  ASG812      0.2125
     97 H          -3.4363   40.9128   72.9081 H     810  ASG810      0.0322
     98 H          -3.1197   39.5107   71.9145 H     810  ASG810      0.0322
     99 H          -2.3253   41.0271   71.5644 H     810  ASG810      0.0322
    100 H           4.5405   43.0186   78.0835 H     811  GCT811      0.2101
    101 H          -0.0562   39.2450   75.1354 H     810  ASG810      0.0575
    102 H           1.2477   49.7733   77.5499 H     812  ASG812      0.2469
@<TRIPOS>BOND
     1     1    12    1
     2     1    31    1
     3     2    55    2
     4     3    10    1
     5     3    30    2
     6     4    59    1
     7     4    46   am
     8     5    48    1
     9     5    26    1
    10     5    18    1
    11     6    37    2
    12     7    44    1
    13     7    26    1
    14     8    31    1
    15     8    33    2
    16     8    13    1
    17     9    37    1
    18    10    43    1
    19    10    45    1
    20    11    30    1
    21    11    25    2
    22    11    19    1
    23    12    21    1
    24    12    22    1
    25    14    24    2
    26    15    44    1
    27    15    28    1
    28    16    17    1
    29    16    35    1
    30    16    47    1
    31    17    53    1
    32    17    57    1
    33    18    55    1
    34    20    36    1
    35    20    49    1
    36    21    58    1
    37    21    40    1
    38    22    35    1
    39    23    38    1
    40    23    48    1
    41    24    42    1
    42    24    54    2
    43    24    60    1
    44    26    27    1
    45    27    39    1
    46    28    40    1
    47    28    31    1
    48    29    55    2
    49    30    52    1
    50    32    40    1
    51    34    55    1
    52    35    41    1
    53    36    41    1
    54    36    57    1
    55    37    47   am
    56    38    43    1
    57    38    52    1
    58    41    42    1
    59    43    51    1
    60    44    59    1
    61    46    56    1
    62    46    50    2
    63    48    59    1
    64     3    61    1
    65     4    62    1
    66     5    63    1
    67     9    64    1
    68     9    65    1
    69     9    66    1
    70    10    67    1
    71    12    68    1
    72    13    69    1
    73    16    70    1
    74    17    71    1
    75    19    72    1
    76    20    73    1
    77    20    74    1
    78    21    75    1
    79    26    76    1
    80    27    77    1
    81    27    78    1
    82    28    79    1
    83    31    80    1
    84    32    81    1
    85    34    82    1
    86    35    83    1
    87    36    84    1
    88    38    85    1
    89    39    86    1
    90    40    87    1
    91    41    88    1
    92    43    89    1
    93    44    90    1
    94    45    91    1
    95    47    92    1
    96    48    93    1
    97    49    94    1
    98    51    95    1
    99    53    96    1
   100    56    97    1
   101    56    98    1
   102    56    99    1
   103    58   100    1
   104    59   101    1
   105    60   102    1
