@<TRIPOS>MOLECULE
1RWH_LIGAND_1_uncharged.pdb
 100 103 0 0 0
SMALL
GASTEIGER

@<TRIPOS>ATOM
      1  O5         2.2660   44.4800   75.8000 O.3   811  GCT811     -0.3315
      2  OSB       -1.4060   35.1560   76.9510 O.2   810  ASG810     -0.3452
      3  C4        -6.2240   36.9230   75.1630 C.2   809  GAD809     -0.0042
      4  N         -1.7550   40.2250   74.5620 N.am  810  ASG810     -0.3053
      5  C4        -0.9150   38.0490   77.4250 C.3   810  ASG810      0.1419
      6  O7         6.3590   47.3150   79.7930 O.2   812  ASG812     -0.2761
      7  O5         0.4860   40.0040   77.4960 O.3   810  ASG810     -0.3411
      8  C6        -0.2000   45.1000   75.9220 C.2   811  GCT811      0.3367
      9  C8         6.7880   44.9150   79.8690 C.3   812  ASG812      0.0122
     10  C3        -5.4810   36.6360   73.8500 C.3   809  GAD809      0.1089
     11  C6        -6.3680   37.5480   77.5620 C.2   809  GAD809      0.3717
     12  C1         3.2210   44.6310   76.8410 C.3   811  GCT811      0.1890
     13  O6B       -1.3420   44.7030   76.2120 O.3   811  GCT811     -0.4788
     14  OSC        2.3780   50.9390   75.4590 O.2   812  ASG812     -0.3452
     15  O1         0.4800   41.5860   75.8700 O.3   810  ASG810     -0.3403
     16  C2         5.5410   47.1110   77.0990 C.3   812  ASG812      0.1025
     17  C1         6.5490   47.9690   76.3120 C.3   812  ASG812      0.1777
     18  O4         0.0900   37.2210   76.7420 O.3   810  ASG810     -0.2460
     19  O6B       -5.6860   37.4520   78.6220 O.3   809  GAD809     -0.4750
     20  C6         4.3900   49.1050   73.4470 C.3   812  ASG812      0.0731
     21  C2         2.8570   44.0010   78.1670 C.3   811  GCT811      0.1342
     22  O3         3.5420   45.9660   77.1910 O.3   812  ASG812     -0.3407
     23  O3        -2.2430   37.6630   75.4560 O.3   810  ASG810     -0.3314
     24  S          1.8870   49.4400   75.7320 S.3   812  ASG812     -0.0004
     25  O6A       -7.5780   37.8890   77.4830 O.2   809  GAD809     -0.2417
     26  C5        -0.2510   39.0850   78.3440 C.3   810  ASG810      0.1155
     27  C6         0.7180   38.4030   79.2560 C.3   810  ASG810      0.0731
     28  C4         0.8500   43.0490   77.1390 C.3   811  GCT811      0.1266
     29  OSA        0.4840   35.4260   78.3440 O.2   810  ASG810     -0.3452
     30  C5        -5.6620   37.2750   76.3110 C.2   809  GAD809      0.2060
     31  C5         0.9190   44.0440   75.9830 C.3   811  GCT811      0.1863
     32  O3         2.2110   41.8200   78.7140 O.3   811  GCT811     -0.3864
     33  O6A        0.0300   46.2680   75.5320 O.2   811  GCT811     -0.2480
     34  OSC        0.9180   35.0480   75.8840 O.3   810  ASG810     -0.2682
     35  C3         4.4230   46.5110   76.2400 C.3   812  ASG812      0.1155
     36  C5         4.8750   48.2150   74.5760 C.3   812  ASG812      0.1154
     37  C7         6.4130   46.2130   79.2210 C.2   812  ASG812      0.2104
     38  C1        -3.6530   37.7310   75.1550 C.3   809  GAD809      0.2313
     39  O6         1.3060   39.3890   79.9570 O.3   810  ASG810     -0.3924
     40  C3         2.2300   42.6920   77.6930 C.3   811  GCT811      0.1149
     41  C4         3.7500   47.5580   75.3950 C.3   812  ASG812      0.1419
     42  O4         3.0670   48.4710   76.2620 O.3   812  ASG812     -0.2460
     43  C2        -3.9880   36.6740   74.1150 C.3   809  GAD809      0.1466
     44  C1        -0.3470   40.7010   76.5910 C.3   810  ASG810      0.1808
     45  O3        -5.8530   35.3460   73.3360 O.3   809  GAD809     -0.3848
     46  C7        -1.5870   40.0170   73.2250 C.2   810  ASG810      0.2104
     47  N          6.1570   46.0780   77.9240 N.am  812  ASG812     -0.3053
     48  C3        -1.7720   38.6870   76.3730 C.3   810  ASG810      0.1165
     49  O6         5.4220   49.7970   72.7690 O.3   812  ASG812     -0.3924
     50  O7        -0.5810   39.3980   72.8270 O.2   810  ASG810     -0.2761
     51  O2        -3.3210   36.9860   72.8690 O.3   809  GAD809     -0.3827
     52  O5        -4.2720   37.4130   76.3750 O.2   809  GAD809     -0.4539
     53  O1         7.3370   48.6810   77.2640 O.3   812  ASG812     -0.3654
     54  OSA        1.3560   48.9760   74.4790 O.2   812  ASG812     -0.3452
     55  S          0.0350   35.6170   76.9870 S.3   810  ASG810     -0.0004
     56  C8        -2.6910   40.3920   72.3440 C.3   810  ASG810      0.0122
     57  O5         5.7970   48.8710   75.4970 O.3   812  ASG812     -0.3413
     58  O2         4.0680   43.5730   78.7240 O.3   811  GCT811     -0.3841
     59  C2        -0.9130   39.6790   75.6070 C.3   810  ASG810      0.1028
     60  OSB        0.8780   49.4590   76.7100 O.3   812  ASG812     -0.2682
     61  H         -7.2520   36.8340   75.1510 H     809  GAD809      0.0637
     62  H         -2.5100   40.7920   74.8400 H     810  ASG810      0.1492
     63  H         -1.5260   37.4460   78.0630 H     810  ASG810      0.0673
     64  H          6.9830   45.0780   80.9080 H     812  ASG812      0.0322
     65  H          7.6650   44.5220   79.3990 H     812  ASG812      0.0322
     66  H          5.9840   44.2180   79.7630 H     812  ASG812      0.0322
     67  H         -5.7420   37.3770   73.1240 H     809  GAD809      0.0667
     68  H          4.0420   44.1290   76.3730 H     811  GCT811      0.0938
     69  H         -1.4720   43.8210   76.5000 H     811  GCT811      0.2951
     70  H          5.0870   47.8200   77.7600 H     812  ASG812      0.0575
     71  H          7.1920   47.3830   75.6890 H     812  ASG812      0.0928
     72  H         -4.7880   37.1890   78.5790 H     809  GAD809      0.2955
     73  H          3.7140   49.8270   73.8560 H     812  ASG812      0.0584
     74  H          3.9260   48.4630   72.7270 H     812  ASG812      0.0584
     75  H          2.2800   44.6200   78.8220 H     811  GCT811      0.0671
     76  H         -0.9900   39.5930   78.9280 H     810  ASG810      0.0648
     77  H          1.4460   37.8610   78.6900 H     810  ASG810      0.0584
     78  H          0.2320   37.6970   79.8960 H     810  ASG810      0.0584
     79  H          0.2370   43.3100   77.9760 H     811  GCT811      0.0655
     80  H          0.6570   43.5260   75.0840 H     811  GCT811      0.0742
     81  H          3.1190   41.6460   79.0070 H     811  GCT811      0.2100
     82  H          4.7800   45.7850   75.5400 H     812  ASG812      0.0645
     83  H          5.4020   47.4480   74.0480 H     812  ASG812      0.0648
     84  H         -3.9620   38.6800   74.7700 H     809  GAD809      0.1084
     85  H          1.7350   40.0080   79.3460 H     810  ASG810      0.2095
     86  H          2.7850   42.2080   76.9160 H     811  GCT811      0.0648
     87  H          3.0110   47.1700   74.7260 H     812  ASG812      0.0673
     88  H         -3.6640   35.7260   74.4910 H     809  GAD809      0.0685
     89  H         -1.1340   41.2230   77.0950 H     810  ASG810      0.0930
     90  H         -5.6230   34.6610   73.9830 H     809  GAD809      0.2103
     91  H          6.3990   45.2270   77.4930 H     812  ASG812      0.1492
     92  H         -2.6100   39.1790   76.8200 H     810  ASG810      0.0645
     93  H          5.8720   50.3940   73.3880 H     812  ASG812      0.2095
     94  H         -3.6280   37.8470   72.5450 H     809  GAD809      0.2102
     95  H          6.7570   49.2140   77.8300 H     812  ASG812      0.2125
     96  H         -3.4360   40.9130   72.9080 H     810  ASG810      0.0322
     97  H         -3.1200   39.5110   71.9150 H     810  ASG810      0.0322
     98  H         -2.3250   41.0270   71.5640 H     810  ASG810      0.0322
     99  H          4.5400   43.0190   78.0840 H     811  GCT811      0.2101
    100  H         -0.0560   39.2450   75.1350 H     810  ASG810      0.0575
@<TRIPOS>BOND
     1     1    12    1
     2     1    31    1
     3     2    55    2
     4     3    10    1
     5     3    30    2
     6     3    61    1
     7     4    59    1
     8     4    46   am
     9     4    62    1
    10     5    48    1
    11     5    26    1
    12     5    18    1
    13     5    63    1
    14     6    37    2
    15     7    44    1
    16     7    26    1
    17     8    31    1
    18     8    33    2
    19     8    13    1
    20     9    37    1
    21     9    64    1
    22     9    65    1
    23     9    66    1
    24    10    43    1
    25    10    45    1
    26    10    67    1
    27    11    30    1
    28    11    25    2
    29    11    19    1
    30    12    21    1
    31    12    22    1
    32    12    68    1
    33    13    69    1
    34    14    24    2
    35    15    44    1
    36    15    28    1
    37    16    17    1
    38    16    35    1
    39    16    47    1
    40    16    70    1
    41    17    53    1
    42    17    57    1
    43    17    71    1
    44    18    55    1
    45    19    72    1
    46    20    36    1
    47    20    49    1
    48    20    73    1
    49    20    74    1
    50    21    58    1
    51    21    40    1
    52    21    75    1
    53    22    35    1
    54    23    38    1
    55    23    48    1
    56    24    42    1
    57    24    54    2
    58    24    60    1
    59    26    27    1
    60    26    76    1
    61    27    39    1
    62    27    77    1
    63    27    78    1
    64    28    40    1
    65    28    31    1
    66    28    79    1
    67    29    55    2
    68    30    52    1
    69    31    80    1
    70    32    40    1
    71    32    81    1
    72    34    55    1
    73    35    41    1
    74    35    82    1
    75    36    41    1
    76    36    57    1
    77    36    83    1
    78    37    47   am
    79    38    43    1
    80    38    52    1
    81    38    84    1
    82    39    85    1
    83    40    86    1
    84    41    42    1
    85    41    87    1
    86    43    51    1
    87    43    88    1
    88    44    59    1
    89    44    89    1
    90    45    90    1
    91    46    56    1
    92    46    50    2
    93    47    91    1
    94    48    59    1
    95    48    92    1
    96    49    93    1
    97    51    94    1
    98    53    95    1
    99    56    96    1
   100    56    97    1
   101    56    98    1
   102    58    99    1
   103    59   100    1
