@<TRIPOS>MOLECULE
1SR5_LIGAND_1.pdb
 201 207 0 0 0
SMALL
GASTEIGER

@<TRIPOS>ATOM
      1  O65       26.4060    0.2580   59.0080 O.2   601  NT1601     -0.2480
      2  C4C       28.6540    2.2110   54.3930 C.3   601  NT1601      0.1893
      3  C5L       25.8030    4.1930   58.5510 C.3   601  NT1601      0.1912
      4  C7B       28.8180   -1.8110   63.6010 C.3   601  NT1601      0.0370
      5  C28       26.6030    3.2080   40.5320 C.3   601  NT1601      0.0370
      6  O7D       26.7550   -4.1140   64.8850 O.3   601  NT1601     -0.2075
      7  C32       30.0290    1.2350   46.8720 C.3   601  NT1601      0.1188
      8  O57       31.6330    5.4390   56.1960 O.2   601  NT1601     -0.1181
      9  O5G       23.7680    3.2980   57.7240 O.3   601  NT1601     -0.2046
     10  O5D       24.0410    0.4400   54.3000 O.2   601  NT1601     -0.1181
     11  O58       29.9890    7.2440   55.7490 O.2   601  NT1601     -0.1181
     12  C69       25.5680    2.8480   63.1970 C.3   601  NT1601      0.1375
     13  C68       24.3100    5.6590   61.8010 C.3   601  NT1601      0.0370
     14  S55       30.3770    5.9060   55.5100 S.O2  601  NT1601      0.2076
     15  S5H       22.6520    4.3080   58.0790 S.O2  601  NT1601      0.2080
     16  C7C       25.7400   -3.0420   64.6980 C.3   601  NT1601      0.1414
     17  C35       28.0270   -0.1150   47.3010 C.3   601  NT1601      0.1076
     18  O54       29.1540    5.1150   56.1110 O.3   601  NT1601     -0.2131
     19  C63       27.3110    0.6360   59.8330 C.2   601  NT1601      0.3367
     20  C61       26.9540    1.5170   61.0530 C.3   601  NT1601      0.1863
     21  C46       30.8120    1.5470   53.1530 C.3   601  NT1601      0.1182
     22  C16       30.6710    6.5470   38.2030 C.3   601  NT1601      0.0915
     23  C3H       31.0370    0.3870   49.6850 C.3   601  NT1601      0.1887
     24  C3B       31.2430    2.0500   47.6180 C.3   601  NT1601      0.1177
     25  C40       29.8230    1.2720   51.8420 C.3   601  NT1601      0.1269
     26  C4B       30.3990    0.4250   56.5910 C.3   601  NT1601      0.0371
     27  O27       27.3310    3.9370   41.8510 O.3   601  NT1601     -0.3744
     28  C49       29.9200    1.2920   54.4600 C.3   601  NT1601      0.1375
     29  O56       30.3040    5.5760   54.1240 O.3   601  NT1601     -0.2311
     30  O42       27.8430    2.0690   53.2350 O.3   601  NT1601     -0.3315
     31  C53       29.3490    4.1410   57.1310 C.3   601  NT1601      0.1076
     32  O5I       22.3360    3.8580   59.3980 O.2   601  NT1601     -0.1181
     33  C20       29.7330    4.2270   42.5410 C.3   601  NT1601      0.1162
     34  O5E       25.8230   -0.2960   55.6770 O.2   601  NT1601     -0.1181
     35  O62       25.9480    0.7610   61.7600 O.3   601  NT1601     -0.3315
     36  C43       27.4230    2.1120   50.8170 C.2   601  NT1601      0.3367
     37  O6A       24.6470    3.3590   64.1310 O.3   601  NT1601     -0.3721
     38  C41       28.5170    2.2850   51.9780 C.3   601  NT1601      0.1863
     39  C6C       25.3870    1.3240   62.9820 C.3   601  NT1601      0.1893
     40  O7F       28.3390   -5.1330   63.2990 O.2   601  NT1601     -0.1181
     41  O67       25.5340    4.9330   62.0110 O.3   601  NT1601     -0.3744
     42  O2A       27.0260    1.8340   43.9230 O.3   601  NT1601     -0.3721
     43  O12       31.3350    6.7770   41.0750 O.3   601  NT1601     -0.3456
     44  O52       27.1550    4.6460   58.1430 O.3   601  NT1601     -0.3403
     45  O3C       32.1030    2.6130   46.5810 O.3   601  NT1601     -0.3744
     46  S5B       24.6180    0.5160   55.5000 S.O2  601  NT1601      0.2079
     47  O77       21.0980    1.8910   64.6290 O.2   601  NT1601     -0.1181
     48  O3A       26.8400   -3.1860   48.3930 O.2   601  NT1601     -0.1181
     49  O78       20.1740   -0.1660   63.7500 O.2   601  NT1601     -0.1181
     50  C70       25.3230   -0.6420   64.3030 C.3   601  NT1601      0.1186
     51  C1B       27.1940    6.0960   38.5340 C.3   601  NT1601      0.0371
     52  C73       23.2530    0.3260   65.3760 C.3   601  NT1601      0.1075
     53  S75       21.2970    0.7610   63.7330 S.O2  601  NT1601      0.2076
     54  O72       23.7670   -1.9510   65.7080 O.3   601  NT1601     -0.3688
     55  O38       28.3250   -3.4000   46.6060 O.2   601  NT1601     -0.1181
     56  O34       29.9560   -0.1880   48.9220 O.3   601  NT1601     -0.3404
     57  C11       32.3950    6.9580   40.0440 C.3   601  NT1601      0.0614
     58  C26       28.4720    3.2740   42.4700 C.3   601  NT1601      0.1176
     59  O64       28.5100    0.2870   59.6700 O.3   601  NT1601     -0.4788
     60  O5M       25.7680    3.0160   59.4380 O.3   601  NT1601     -0.3395
     61  S7E       26.9080   -5.2990   63.8750 S.O2  601  NT1601      0.2079
     62  O4D       27.9000    1.9700   55.5290 O.3   601  NT1601     -0.3400
     63  O7H       26.8110   -6.5610   64.5700 O.3   601  NT1601     -0.2311
     64  O76       21.6230    1.2030   62.3860 O.3   601  NT1601     -0.2311
     65  O7A       27.3500   -1.7120   63.3670 O.3   601  NT1601     -0.3744
     66  C6B       25.3350    4.2800   65.2920 C.3   601  NT1601      0.0371
     67  C29       28.1560    2.7170   44.0740 C.3   601  NT1601      0.1374
     68  C18       29.8180    5.9130   35.8680 C.3   601  NT1601      0.0369
     69  S37       27.3350   -2.5980   47.2420 S.O2  601  NT1601      0.2076
     70  C13       33.4850    7.9140   40.5870 C.3   601  NT1601     -0.0385
     71  O5C       23.7050    0.3270   56.5790 O.3   601  NT1601     -0.2311
     72  C23       32.0820    4.7720   43.2190 C.3   601  NT1601     -0.0360
     73  C1C       30.2370    5.8580   40.6580 C.3   601  NT1601      0.1884
     74  C3E       32.0470    0.9800   48.6240 C.3   601  NT1601      0.1374
     75  O5A       25.1270    2.0510   55.4590 O.3   601  NT1601     -0.2069
     76  C59       25.8070    2.5290   56.5960 C.3   601  NT1601      0.1514
     77  O7G       25.9490   -5.1700   62.8020 O.2   601  NT1601     -0.1181
     78  O45       27.1130    3.1010   50.0400 O.3   601  NT1601     -0.4788
     79  C19       29.5780    6.3760   39.3500 C.3   601  NT1601      0.1350
     80  O1A       28.5650    5.5200   38.9690 O.3   601  NT1601     -0.3722
     81  O5K       23.1730    5.6850   57.9270 O.3   601  NT1601     -0.2311
     82  O4A       30.6510    1.5010   55.6460 O.3   601  NT1601     -0.3721
     83  O3I       30.5390    1.4970   50.5410 O.3   601  NT1601     -0.3396
     84  C2C       29.5200    2.0080   44.5640 C.3   601  NT1601      0.1886
     85  C7I       24.7600   -3.0000   65.8940 C.3   601  NT1601      0.0793
     86  C66       25.3750    3.5460   61.8290 C.3   601  NT1601      0.1182
     87  C3G       32.9520    2.8840   50.2620 C.3   601  NT1601      0.0371
     88  C2B       25.8290    1.8980   45.0310 C.3   601  NT1601      0.0371
     89  O44       26.8220    0.9830   50.6390 O.2   601  NT1601     -0.2480
     90  O5J       21.6700    4.0420   57.1430 O.2   601  NT1601     -0.1181
     91  C79       26.4020   -1.6790   64.5100 C.3   601  NT1601      0.1175
     92  C48       32.0430   -0.7410   53.5380 C.3   601  NT1601      0.0370
     93  O36       28.2140   -1.4330   47.7350 O.3   601  NT1601     -0.2131
     94  O1D       29.6210    4.5140   41.0630 O.3   601  NT1601     -0.3402
     95  C33       29.1110    0.6520   48.0200 C.3   601  NT1601      0.1160
     96  C3D       33.2710    3.4100   46.9220 C.3   601  NT1601      0.0370
     97  O17       30.1080    7.0210   37.0070 O.3   601  NT1601     -0.3769
     98  C60       26.4120    3.0050   60.7260 C.3   601  NT1601      0.1269
     99  O30       29.0820    2.0830   45.9070 O.3   601  NT1601     -0.3401
    100  O22       30.4330    3.2870   44.5760 O.3   601  NT1601     -0.3430
    101  O74       22.5750   -0.0750   64.2590 O.3   601  NT1601     -0.2131
    102  C51       27.9510    3.5760   57.4800 C.3   601  NT1601      0.1161
    103  C50       27.1850    3.0270   56.1720 C.3   601  NT1601      0.1212
    104  C10       31.7590    7.5240   38.6790 C.3   601  NT1601      0.0022
    105  O39       26.3610   -2.0850   46.3250 O.3   601  NT1601     -0.2311
    106  C71       24.3440   -0.6460   65.5410 C.3   601  NT1601      0.1130
    107  C5F       25.0200    3.7180   57.3260 C.3   601  NT1601      0.1710
    108  O6D       25.9290    0.6140   64.1080 O.3   601  NT1601     -0.3401
    109  O47       32.0570    0.7010   53.1760 O.3   601  NT1601     -0.3744
    110  C21       31.0930    3.5630   43.2660 C.3   601  NT1601      0.0877
    111  O3F       33.1770    1.5180   49.3610 O.3   601  NT1601     -0.3721
    112 H          29.0127    3.2175   54.3366 H     601  NT1601      0.0938
    113 H          25.4031    5.0477   59.0555 H     601  NT1601      0.0938
    114 H          29.3291   -1.8211   62.6610 H     601  NT1601      0.0524
    115 H          29.0341   -2.7132   64.1342 H     601  NT1601      0.0524
    116 H          29.1451   -0.9699   64.1759 H     601  NT1601      0.0524
    117 H          25.7875    3.8133   40.1950 H     601  NT1601      0.0524
    118 H          26.2378    2.2427   40.8145 H     601  NT1601      0.0524
    119 H          27.3182    3.1020   39.7433 H     601  NT1601      0.0524
    120 H          30.5046    0.5132   46.2414 H     601  NT1601      0.0651
    121 H          26.5462    3.0331   63.5891 H     601  NT1601      0.0674
    122 H          24.4849    6.7039   61.9510 H     601  NT1601      0.0524
    123 H          23.5697    5.3181   62.4943 H     601  NT1601      0.0524
    124 H          23.9650    5.4950   60.8015 H     601  NT1601      0.0524
    125 H          25.1882   -3.2703   63.8101 H     601  NT1601      0.0671
    126 H          28.1462   -0.0414   46.2402 H     601  NT1601      0.0611
    127 H          27.0457    0.2566   47.5102 H     601  NT1601      0.0611
    128 H          27.8463    1.7099   61.6111 H     601  NT1601      0.0742
    129 H          31.1785    2.5511   53.1039 H     601  NT1601      0.0651
    130 H          31.0931    5.5838   38.0053 H     601  NT1601      0.0624
    131 H          31.4887   -0.3468   50.3193 H     601  NT1601      0.0938
    132 H          30.8884    2.8569   48.2246 H     601  NT1601      0.0650
    133 H          29.5100    0.2488   51.8385 H     601  NT1601      0.0656
    134 H          30.9602    0.5973   57.4856 H     601  NT1601      0.0524
    135 H          30.6959   -0.5072   56.1576 H     601  NT1601      0.0524
    136 H          29.3554    0.3931   56.8252 H     601  NT1601      0.0524
    137 H          29.6141    0.2668   54.4788 H     601  NT1601      0.0674
    138 H          31.0246    6.0178   53.6481 H     601  NT1601      0.2469
    139 H          29.7895    4.5943   57.9943 H     601  NT1601      0.0611
    140 H          30.0064    3.3641   56.8005 H     601  NT1601      0.0611
    141 H          29.7978    5.0886   43.1721 H     601  NT1601      0.0650
    142 H          28.9272    3.2704   51.9033 H     601  NT1601      0.0742
    143 H          24.3290    1.1997   62.8810 H     601  NT1601      0.0938
    144 H          24.7410   -0.8674   63.4339 H     601  NT1601      0.0651
    145 H          26.5358    5.2931   38.2750 H     601  NT1601      0.0524
    146 H          27.3283    6.7348   37.6862 H     601  NT1601      0.0524
    147 H          26.7711    6.6579   39.3405 H     601  NT1601      0.0524
    148 H          23.6470    1.3116   65.2410 H     601  NT1601      0.0611
    149 H          22.6175    0.3604   66.2361 H     601  NT1601      0.0611
    150 H          32.8447    6.0116   39.8271 H     601  NT1601      0.0595
    151 H          28.6657    2.4310   41.8401 H     601  NT1601      0.0650
    152 H          29.1662    0.5672   60.2773 H     601  NT1601      0.2951
    153 H          27.4748   -6.5929   65.2766 H     601  NT1601      0.2469
    154 H          20.8812    1.7130   62.0247 H     601  NT1601      0.2469
    155 H          24.5791    4.6321   65.9625 H     601  NT1601      0.0524
    156 H          25.8275    5.1152   64.8395 H     601  NT1601      0.0524
    157 H          26.0489    3.6959   65.8343 H     601  NT1601      0.0524
    158 H          27.9090    3.4529   44.8104 H     601  NT1601      0.0674
    159 H          29.3923    6.3878   35.0087 H     601  NT1601      0.0524
    160 H          29.1344    5.1823   36.2471 H     601  NT1601      0.0524
    161 H          30.7351    5.4350   35.5937 H     601  NT1601      0.0524
    162 H          33.0474    8.8651   40.8080 H     601  NT1601      0.0255
    163 H          34.2512    8.0365   39.8502 H     601  NT1601      0.0255
    164 H          33.9098    7.5012   41.4781 H     601  NT1601      0.0255
    165 H          23.4075   -0.5961   56.5928 H     601  NT1601      0.2469
    166 H          32.4859    4.8642   42.2325 H     601  NT1601      0.0255
    167 H          32.8772    4.6096   43.9163 H     601  NT1601      0.0255
    168 H          31.5600    5.6700   43.4761 H     601  NT1601      0.0255
    169 H          30.5374    5.6141   41.6556 H     601  NT1601      0.0938
    170 H          32.4424    0.2451   47.9543 H     601  NT1601      0.0674
    171 H          25.8853    1.7212   57.2933 H     601  NT1601      0.0677
    172 H          27.5340    3.9311   50.1476 H     601  NT1601      0.2951
    173 H          29.1496    7.3407   39.5254 H     601  NT1601      0.0673
    174 H          23.8589    5.8466   58.5935 H     601  NT1601      0.2469
    175 H          29.9114    1.1173   44.1186 H     601  NT1601      0.0938
    176 H          25.3094   -2.8086   66.7920 H     601  NT1601      0.0587
    177 H          24.2573   -3.9422   65.9607 H     601  NT1601      0.0587
    178 H          24.3931    3.3261   61.4652 H     601  NT1601      0.0651
    179 H          33.8711    3.1512   50.7403 H     601  NT1601      0.0524
    180 H          32.2033    2.7022   51.0045 H     601  NT1601      0.0524
    181 H          32.6359    3.6834   49.6249 H     601  NT1601      0.0524
    182 H          25.0709    1.1864   44.7785 H     601  NT1601      0.0524
    183 H          25.4060    2.8808   45.0428 H     601  NT1601      0.0524
    184 H          26.2255    1.6688   45.9980 H     601  NT1601      0.0524
    185 H          26.9687   -1.4249   65.3813 H     601  NT1601      0.0650
    186 H          33.0377   -1.1317   53.4852 H     601  NT1601      0.0524
    187 H          31.4139   -1.2739   52.8560 H     601  NT1601      0.0524
    188 H          31.6673   -0.8552   54.5334 H     601  NT1601      0.0524
    189 H          28.6604    1.3902   48.6500 H     601  NT1601      0.0648
    190 H          33.7617    3.7256   46.0250 H     601  NT1601      0.0524
    191 H          33.9450    2.8220   47.5093 H     601  NT1601      0.0524
    192 H          32.9656    4.2687   47.4825 H     601  NT1601      0.0524
    193 H          27.2635    3.6529   60.7329 H     601  NT1601      0.0656
    194 H          28.0701    2.7442   58.1424 H     601  NT1601      0.0648
    195 H          27.1054    3.8276   55.4666 H     601  NT1601      0.0651
    196 H          31.3270    8.4870   38.8547 H     601  NT1601      0.0316
    197 H          32.5195    7.6166   37.9321 H     601  NT1601      0.0316
    198 H          25.8014   -2.8111   46.0080 H     601  NT1601      0.2469
    199 H          24.9207   -0.3762   66.4010 H     601  NT1601      0.0647
    200 H          24.9153    4.5250   56.6313 H     601  NT1601      0.0700
    201 H          31.6298    2.7103   42.9060 H     601  NT1601      0.0621
@<TRIPOS>BOND
     1     1    19    2
     2     2    30    1
     3     2    28    1
     4     2    62    1
     5     3    44    1
     6     3   107    1
     7     3    60    1
     8     4    65    1
     9     5    27    1
    10     6    16    1
    11     6    61    1
    12     7    99    1
    13     7    95    1
    14     7    24    1
    15     8    14    2
    16     9   107    1
    17     9    15    1
    18    10    46    2
    19    11    14    2
    20    12    86    1
    21    12    37    1
    22    12    39    1
    23    13    41    1
    24    14    18    1
    25    14    29    1
    26    15    32    2
    27    15    90    2
    28    15    81    1
    29    16    91    1
    30    16    85    1
    31    17    95    1
    32    17    93    1
    33    18    31    1
    34    19    20    1
    35    19    59    1
    36    20    98    1
    37    20    35    1
    38    21    25    1
    39    21   109    1
    40    21    28    1
    41    22   104    1
    42    22    97    1
    43    22    79    1
    44    23    56    1
    45    23    74    1
    46    23    83    1
    47    24    45    1
    48    24    74    1
    49    25    83    1
    50    25    38    1
    51    26    82    1
    52    27    58    1
    53    28    82    1
    54    30    38    1
    55    31   102    1
    56    33    94    1
    57    33   110    1
    58    33    58    1
    59    34    46    2
    60    35    39    1
    61    36    38    1
    62    36    89    2
    63    36    78    1
    64    37    66    1
    65    39   108    1
    66    40    61    2
    67    41    86    1
    68    42    67    1
    69    42    88    1
    70    43    57    1
    71    43    73    1
    72    44   102    1
    73    45    96    1
    74    46    75    1
    75    46    71    1
    76    47    53    2
    77    48    69    2
    78    49    53    2
    79    50   108    1
    80    50   106    1
    81    50    91    1
    82    51    80    1
    83    52   106    1
    84    52   101    1
    85    53   101    1
    86    53    64    1
    87    54   106    1
    88    54    85    1
    89    55    69    2
    90    56    95    1
    91    57   104    1
    92    57    70    1
    93    58    67    1
    94    60    98    1
    95    61    77    2
    96    61    63    1
    97    62   103    1
    98    65    91    1
    99    67    84    1
   100    68    97    1
   101    69    93    1
   102    69   105    1
   103    72   110    1
   104    73    79    1
   105    73    94    1
   106    74   111    1
   107    75    76    1
   108    76   103    1
   109    76   107    1
   110    79    80    1
   111    84   100    1
   112    84    99    1
   113    86    98    1
   114    87   111    1
   115    92   109    1
   116   100   110    1
   117   102   103    1
   118     2   112    1
   119     3   113    1
   120     4   114    1
   121     4   115    1
   122     4   116    1
   123     5   117    1
   124     5   118    1
   125     5   119    1
   126     7   120    1
   127    12   121    1
   128    13   122    1
   129    13   123    1
   130    13   124    1
   131    16   125    1
   132    17   126    1
   133    17   127    1
   134    20   128    1
   135    21   129    1
   136    22   130    1
   137    23   131    1
   138    24   132    1
   139    25   133    1
   140    26   134    1
   141    26   135    1
   142    26   136    1
   143    28   137    1
   144    29   138    1
   145    31   139    1
   146    31   140    1
   147    33   141    1
   148    38   142    1
   149    39   143    1
   150    50   144    1
   151    51   145    1
   152    51   146    1
   153    51   147    1
   154    52   148    1
   155    52   149    1
   156    57   150    1
   157    58   151    1
   158    59   152    1
   159    63   153    1
   160    64   154    1
   161    66   155    1
   162    66   156    1
   163    66   157    1
   164    67   158    1
   165    68   159    1
   166    68   160    1
   167    68   161    1
   168    70   162    1
   169    70   163    1
   170    70   164    1
   171    71   165    1
   172    72   166    1
   173    72   167    1
   174    72   168    1
   175    73   169    1
   176    74   170    1
   177    76   171    1
   178    78   172    1
   179    79   173    1
   180    81   174    1
   181    84   175    1
   182    85   176    1
   183    85   177    1
   184    86   178    1
   185    87   179    1
   186    87   180    1
   187    87   181    1
   188    88   182    1
   189    88   183    1
   190    88   184    1
   191    91   185    1
   192    92   186    1
   193    92   187    1
   194    92   188    1
   195    95   189    1
   196    96   190    1
   197    96   191    1
   198    96   192    1
   199    98   193    1
   200   102   194    1
   201   103   195    1
   202   104   196    1
   203   104   197    1
   204   105   198    1
   205   106   199    1
   206   107   200    1
   207   110   201    1
