@<TRIPOS>MOLECULE
1SR5_LIGAND_1_uncharged.pdb
 200 205 0 0 0
SMALL
GASTEIGER

@<TRIPOS>ATOM
      1  O65       26.4060    0.2580   59.0080 O.2   601  NT1601     -0.2480
      2  C4C       28.6540    2.2110   54.3930 C.3   601  NT1601      0.1893
      3  C5L       25.8030    4.1930   58.5510 C.3   601  NT1601      0.1912
      4  C7B       28.8180   -1.8110   63.6010 C.3   601  NT1601      0.0370
      5  C28       26.6030    3.2080   40.5320 C.3   601  NT1601      0.0370
      6  O7D       26.7550   -4.1140   64.8850 O.3   601  NT1601     -0.2198
      7  C32       30.0290    1.2350   46.8720 C.3   601  NT1601      0.1188
      8  O57       31.6330    5.4390   56.1960 O.2   601  NT1601     -0.1181
      9  O5G       23.7680    3.2980   57.7240 O.3   601  NT1601     -0.2046
     10  O5D       24.0410    0.4400   54.3000 O.2   601  NT1601     -0.1181
     11  O58       29.9890    7.2440   55.7490 O.2   601  NT1601     -0.1181
     12  C69       25.5680    2.8480   63.1970 C.3   601  NT1601      0.1375
     13  C68       24.3100    5.6590   61.8010 C.3   601  NT1601      0.0370
     14  S55       30.3770    5.9060   55.5100 S.O2  601  NT1601      0.2076
     15  S5H       22.6520    4.3080   58.0790 S.O2  601  NT1601      0.2080
     16  C7C       25.7400   -3.0420   64.6980 C.3   601  NT1601      0.1399
     17  C35       28.0270   -0.1150   47.3010 C.3   601  NT1601      0.1076
     18  O54       29.1540    5.1150   56.1110 O.3   601  NT1601     -0.2131
     19  C63       27.3110    0.6360   59.8330 C.2   601  NT1601      0.3367
     20  C61       26.9540    1.5170   61.0530 C.3   601  NT1601      0.1863
     21  C46       30.8120    1.5470   53.1530 C.3   601  NT1601      0.1182
     22  C16       30.6710    6.5470   38.2030 C.3   601  NT1601      0.0915
     23  C3H       31.0370    0.3870   49.6850 C.3   601  NT1601      0.1887
     24  C3B       31.2430    2.0500   47.6180 C.3   601  NT1601      0.1177
     25  C40       29.8230    1.2720   51.8420 C.3   601  NT1601      0.1269
     26  C4B       30.3990    0.4250   56.5910 C.3   601  NT1601      0.0371
     27  O27       27.3310    3.9370   41.8510 O.3   601  NT1601     -0.3744
     28  C49       29.9200    1.2920   54.4600 C.3   601  NT1601      0.1375
     29  O56       30.3040    5.5760   54.1240 O.3   601  NT1601     -0.2311
     30  O42       27.8430    2.0690   53.2350 O.3   601  NT1601     -0.3315
     31  C53       29.3490    4.1410   57.1310 C.3   601  NT1601      0.1076
     32  O5I       22.3360    3.8580   59.3980 O.2   601  NT1601     -0.1181
     33  C20       29.7330    4.2270   42.5410 C.3   601  NT1601      0.1162
     34  O5E       25.8230   -0.2960   55.6770 O.2   601  NT1601     -0.1181
     35  O62       25.9480    0.7610   61.7600 O.3   601  NT1601     -0.3315
     36  C43       27.4230    2.1120   50.8170 C.2   601  NT1601      0.3367
     37  O6A       24.6470    3.3590   64.1310 O.3   601  NT1601     -0.3721
     38  C41       28.5170    2.2850   51.9780 C.3   601  NT1601      0.1863
     39  C6C       25.3870    1.3240   62.9820 C.3   601  NT1601      0.1893
     40  O7F       28.3390   -5.1330   63.2990 O.2   601  NT1601     -0.1341
     41  O67       25.5340    4.9330   62.0110 O.3   601  NT1601     -0.3744
     42  O2A       27.0260    1.8340   43.9230 O.3   601  NT1601     -0.3721
     43  O12       31.3350    6.7770   41.0750 O.3   601  NT1601     -0.3456
     44  O52       27.1550    4.6460   58.1430 O.3   601  NT1601     -0.3403
     45  O3C       32.1030    2.6130   46.5810 O.3   601  NT1601     -0.3744
     46  S5B       24.6180    0.5160   55.5000 S.O2  601  NT1601      0.2079
     47  O77       21.0980    1.8910   64.6290 O.2   601  NT1601     -0.1181
     48  O3A       26.8400   -3.1860   48.3930 O.2   601  NT1601     -0.1181
     49  O78       20.1740   -0.1660   63.7500 O.2   601  NT1601     -0.1181
     50  C70       25.3230   -0.6420   64.3030 C.3   601  NT1601      0.1186
     51  C1B       27.1940    6.0960   38.5340 C.3   601  NT1601      0.0371
     52  C73       23.2530    0.3260   65.3760 C.3   601  NT1601      0.1075
     53  S75       21.2970    0.7610   63.7330 S.O2  601  NT1601      0.2076
     54  O72       23.7670   -1.9510   65.7080 O.3   601  NT1601     -0.3688
     55  O38       28.3250   -3.4000   46.6060 O.2   601  NT1601     -0.1181
     56  O34       29.9560   -0.1880   48.9220 O.3   601  NT1601     -0.3404
     57  C11       32.3950    6.9580   40.0440 C.3   601  NT1601      0.0614
     58  C26       28.4720    3.2740   42.4700 C.3   601  NT1601      0.1176
     59  O64       28.5100    0.2870   59.6700 O.3   601  NT1601     -0.4788
     60  O5M       25.7680    3.0160   59.4380 O.3   601  NT1601     -0.3395
     61  S7E       26.9080   -5.2990   63.8750 S.3   601  NT1601      0.1735
     62  O4D       27.9000    1.9700   55.5290 O.3   601  NT1601     -0.3400
     63  O76       21.6230    1.2030   62.3860 O.3   601  NT1601     -0.2311
     64  O7A       27.3500   -1.7120   63.3670 O.3   601  NT1601     -0.3744
     65  C6B       25.3350    4.2800   65.2920 C.3   601  NT1601      0.0371
     66  C29       28.1560    2.7170   44.0740 C.3   601  NT1601      0.1374
     67  C18       29.8180    5.9130   35.8680 C.3   601  NT1601      0.0369
     68  S37       27.3350   -2.5980   47.2420 S.O2  601  NT1601      0.2076
     69  C13       33.4850    7.9140   40.5870 C.3   601  NT1601     -0.0385
     70  O5C       23.7050    0.3270   56.5790 O.3   601  NT1601     -0.2311
     71  C23       32.0820    4.7720   43.2190 C.3   601  NT1601     -0.0360
     72  C1C       30.2370    5.8580   40.6580 C.3   601  NT1601      0.1884
     73  C3E       32.0470    0.9800   48.6240 C.3   601  NT1601      0.1374
     74  O5A       25.1270    2.0510   55.4590 O.3   601  NT1601     -0.2069
     75  C59       25.8070    2.5290   56.5960 C.3   601  NT1601      0.1514
     76  O7G       25.9490   -5.1700   62.8020 O.3   601  NT1601     -0.0378
     77  O45       27.1130    3.1010   50.0400 O.3   601  NT1601     -0.4788
     78  C19       29.5780    6.3760   39.3500 C.3   601  NT1601      0.1350
     79  O1A       28.5650    5.5200   38.9690 O.3   601  NT1601     -0.3722
     80  O5K       23.1730    5.6850   57.9270 O.3   601  NT1601     -0.2311
     81  O4A       30.6510    1.5010   55.6460 O.3   601  NT1601     -0.3721
     82  O3I       30.5390    1.4970   50.5410 O.3   601  NT1601     -0.3396
     83  C2C       29.5200    2.0080   44.5640 C.3   601  NT1601      0.1886
     84  C7I       24.7600   -3.0000   65.8940 C.3   601  NT1601      0.0793
     85  C66       25.3750    3.5460   61.8290 C.3   601  NT1601      0.1182
     86  C3G       32.9520    2.8840   50.2620 C.3   601  NT1601      0.0371
     87  C2B       25.8290    1.8980   45.0310 C.3   601  NT1601      0.0371
     88  O44       26.8220    0.9830   50.6390 O.2   601  NT1601     -0.2480
     89  O5J       21.6700    4.0420   57.1430 O.2   601  NT1601     -0.1181
     90  C79       26.4020   -1.6790   64.5100 C.3   601  NT1601      0.1175
     91  C48       32.0430   -0.7410   53.5380 C.3   601  NT1601      0.0370
     92  O36       28.2140   -1.4330   47.7350 O.3   601  NT1601     -0.2131
     93  O1D       29.6210    4.5140   41.0630 O.3   601  NT1601     -0.3402
     94  C33       29.1110    0.6520   48.0200 C.3   601  NT1601      0.1160
     95  C3D       33.2710    3.4100   46.9220 C.3   601  NT1601      0.0370
     96  O17       30.1080    7.0210   37.0070 O.3   601  NT1601     -0.3769
     97  C60       26.4120    3.0050   60.7260 C.3   601  NT1601      0.1269
     98  O30       29.0820    2.0830   45.9070 O.3   601  NT1601     -0.3401
     99  O22       30.4330    3.2870   44.5760 O.3   601  NT1601     -0.3430
    100  O74       22.5750   -0.0750   64.2590 O.3   601  NT1601     -0.2131
    101  C51       27.9510    3.5760   57.4800 C.3   601  NT1601      0.1161
    102  C50       27.1850    3.0270   56.1720 C.3   601  NT1601      0.1212
    103  C10       31.7590    7.5240   38.6790 C.3   601  NT1601      0.0022
    104  O39       26.3610   -2.0850   46.3250 O.3   601  NT1601     -0.2311
    105  C71       24.3440   -0.6460   65.5410 C.3   601  NT1601      0.1130
    106  C5F       25.0200    3.7180   57.3260 C.3   601  NT1601      0.1710
    107  O6D       25.9290    0.6140   64.1080 O.3   601  NT1601     -0.3401
    108  O47       32.0570    0.7010   53.1760 O.3   601  NT1601     -0.3744
    109  C21       31.0930    3.5630   43.2660 C.3   601  NT1601      0.0877
    110  O3F       33.1770    1.5180   49.3610 O.3   601  NT1601     -0.3721
    111  H         29.0130    3.2170   54.3370 H     601  NT1601      0.0938
    112  H         25.4030    5.0480   59.0560 H     601  NT1601      0.0938
    113  H         29.3290   -1.8210   62.6610 H     601  NT1601      0.0524
    114  H         29.0340   -2.7130   64.1340 H     601  NT1601      0.0524
    115  H         29.1450   -0.9700   64.1760 H     601  NT1601      0.0524
    116  H         25.7880    3.8130   40.1950 H     601  NT1601      0.0524
    117  H         26.2380    2.2430   40.8150 H     601  NT1601      0.0524
    118  H         27.3180    3.1020   39.7430 H     601  NT1601      0.0524
    119  H         30.5050    0.5130   46.2410 H     601  NT1601      0.0651
    120  H         26.5460    3.0330   63.5890 H     601  NT1601      0.0674
    121  H         24.4850    6.7040   61.9510 H     601  NT1601      0.0524
    122  H         23.5700    5.3180   62.4940 H     601  NT1601      0.0524
    123  H         23.9650    5.4950   60.8010 H     601  NT1601      0.0524
    124  H         25.1880   -3.2700   63.8100 H     601  NT1601      0.0670
    125  H         28.1460   -0.0410   46.2400 H     601  NT1601      0.0611
    126  H         27.0460    0.2570   47.5100 H     601  NT1601      0.0611
    127  H         27.8460    1.7100   61.6110 H     601  NT1601      0.0742
    128  H         31.1780    2.5510   53.1040 H     601  NT1601      0.0651
    129  H         31.0930    5.5840   38.0050 H     601  NT1601      0.0624
    130  H         31.4890   -0.3470   50.3190 H     601  NT1601      0.0938
    131  H         30.8880    2.8570   48.2250 H     601  NT1601      0.0650
    132  H         29.5100    0.2490   51.8390 H     601  NT1601      0.0656
    133  H         30.9600    0.5970   57.4860 H     601  NT1601      0.0524
    134  H         30.6960   -0.5070   56.1580 H     601  NT1601      0.0524
    135  H         29.3550    0.3930   56.8250 H     601  NT1601      0.0524
    136  H         29.6140    0.2670   54.4790 H     601  NT1601      0.0674
    137  H         31.0250    6.0180   53.6480 H     601  NT1601      0.2469
    138  H         29.7900    4.5940   57.9940 H     601  NT1601      0.0611
    139  H         30.0060    3.3640   56.8000 H     601  NT1601      0.0611
    140  H         29.7980    5.0890   43.1720 H     601  NT1601      0.0650
    141  H         28.9270    3.2700   51.9030 H     601  NT1601      0.0742
    142  H         24.3290    1.2000   62.8810 H     601  NT1601      0.0938
    143  H         24.7410   -0.8670   63.4340 H     601  NT1601      0.0651
    144  H         26.5360    5.2930   38.2750 H     601  NT1601      0.0524
    145  H         27.3280    6.7350   37.6860 H     601  NT1601      0.0524
    146  H         26.7710    6.6580   39.3400 H     601  NT1601      0.0524
    147  H         23.6470    1.3120   65.2410 H     601  NT1601      0.0611
    148  H         22.6170    0.3600   66.2360 H     601  NT1601      0.0611
    149  H         32.8450    6.0120   39.8270 H     601  NT1601      0.0595
    150  H         28.6660    2.4310   41.8400 H     601  NT1601      0.0650
    151  H         29.1660    0.5670   60.2770 H     601  NT1601      0.2951
    152  H         27.4750   -6.5930   65.2770 H     601  NT1601      0.0000
    153  H         20.8810    1.7130   62.0250 H     601  NT1601      0.2469
    154  H         24.5790    4.6320   65.9630 H     601  NT1601      0.0524
    155  H         25.8280    5.1150   64.8400 H     601  NT1601      0.0524
    156  H         26.0490    3.6960   65.8340 H     601  NT1601      0.0524
    157  H         27.9090    3.4530   44.8100 H     601  NT1601      0.0674
    158  H         29.3920    6.3880   35.0090 H     601  NT1601      0.0524
    159  H         29.1340    5.1820   36.2470 H     601  NT1601      0.0524
    160  H         30.7350    5.4350   35.5940 H     601  NT1601      0.0524
    161  H         33.0470    8.8650   40.8080 H     601  NT1601      0.0255
    162  H         34.2510    8.0370   39.8500 H     601  NT1601      0.0255
    163  H         33.9100    7.5010   41.4780 H     601  NT1601      0.0255
    164  H         23.4070   -0.5960   56.5930 H     601  NT1601      0.2469
    165  H         32.4860    4.8640   42.2330 H     601  NT1601      0.0255
    166  H         32.8770    4.6100   43.9160 H     601  NT1601      0.0255
    167  H         31.5600    5.6700   43.4760 H     601  NT1601      0.0255
    168  H         30.5370    5.6140   41.6560 H     601  NT1601      0.0938
    169  H         32.4420    0.2450   47.9540 H     601  NT1601      0.0674
    170  H         25.8850    1.7210   57.2930 H     601  NT1601      0.0677
    171  H         27.5340    3.9310   50.1480 H     601  NT1601      0.2951
    172  H         29.1500    7.3410   39.5250 H     601  NT1601      0.0673
    173  H         23.8590    5.8470   58.5930 H     601  NT1601      0.2469
    174  H         29.9110    1.1170   44.1190 H     601  NT1601      0.0938
    175  H         25.3090   -2.8090   66.7920 H     601  NT1601      0.0587
    176  H         24.2570   -3.9420   65.9610 H     601  NT1601      0.0587
    177  H         24.3930    3.3260   61.4650 H     601  NT1601      0.0651
    178  H         33.8710    3.1510   50.7400 H     601  NT1601      0.0524
    179  H         32.2030    2.7020   51.0050 H     601  NT1601      0.0524
    180  H         32.6360    3.6830   49.6250 H     601  NT1601      0.0524
    181  H         25.0710    1.1860   44.7790 H     601  NT1601      0.0524
    182  H         25.4060    2.8810   45.0430 H     601  NT1601      0.0524
    183  H         26.2260    1.6690   45.9980 H     601  NT1601      0.0524
    184  H         26.9690   -1.4250   65.3810 H     601  NT1601      0.0650
    185  H         33.0380   -1.1320   53.4850 H     601  NT1601      0.0524
    186  H         31.4140   -1.2740   52.8560 H     601  NT1601      0.0524
    187  H         31.6670   -0.8550   54.5330 H     601  NT1601      0.0524
    188  H         28.6600    1.3900   48.6500 H     601  NT1601      0.0648
    189  H         33.7620    3.7260   46.0250 H     601  NT1601      0.0524
    190  H         33.9450    2.8220   47.5090 H     601  NT1601      0.0524
    191  H         32.9660    4.2690   47.4830 H     601  NT1601      0.0524
    192  H         27.2640    3.6530   60.7330 H     601  NT1601      0.0656
    193  H         28.0700    2.7440   58.1420 H     601  NT1601      0.0648
    194  H         27.1050    3.8280   55.4670 H     601  NT1601      0.0651
    195  H         31.3270    8.4870   38.8550 H     601  NT1601      0.0316
    196  H         32.5200    7.6170   37.9320 H     601  NT1601      0.0316
    197  H         25.8010   -2.8110   46.0080 H     601  NT1601      0.2469
    198  H         24.9210   -0.3760   66.4010 H     601  NT1601      0.0647
    199  H         24.9150    4.5250   56.6310 H     601  NT1601      0.0700
    200  H         31.6300    2.7100   42.9060 H     601  NT1601      0.0621
@<TRIPOS>BOND
     1     1    19    2
     2     2    30    1
     3     2    28    1
     4     2    62    1
     5     2   111    1
     6     3    44    1
     7     3   106    1
     8     3    60    1
     9     3   112    1
    10     4    64    1
    11     4   113    1
    12     4   114    1
    13     4   115    1
    14     5    27    1
    15     5   116    1
    16     5   117    1
    17     5   118    1
    18     6    16    1
    19     6    61    1
    20     7    98    1
    21     7    94    1
    22     7    24    1
    23     7   119    1
    24     8    14    2
    25     9   106    1
    26     9    15    1
    27    10    46    2
    28    11    14    2
    29    12    85    1
    30    12    37    1
    31    12    39    1
    32    12   120    1
    33    13    41    1
    34    13   121    1
    35    13   122    1
    36    13   123    1
    37    14    18    1
    38    14    29    1
    39    15    32    2
    40    15    89    2
    41    15    80    1
    42    16    90    1
    43    16    84    1
    44    16   124    1
    45    17    94    1
    46    17    92    1
    47    17   125    1
    48    17   126    1
    49    18    31    1
    50    19    20    1
    51    19    59    1
    52    20    97    1
    53    20    35    1
    54    20   127    1
    55    21    25    1
    56    21   108    1
    57    21    28    1
    58    21   128    1
    59    22   103    1
    60    22    96    1
    61    22    78    1
    62    22   129    1
    63    23    56    1
    64    23    73    1
    65    23    82    1
    66    23   130    1
    67    24    45    1
    68    24    73    1
    69    24   131    1
    70    25    82    1
    71    25    38    1
    72    25   132    1
    73    26    81    1
    74    26   133    1
    75    26   134    1
    76    26   135    1
    77    27    58    1
    78    28    81    1
    79    28   136    1
    80    29   137    1
    81    30    38    1
    82    31   101    1
    83    31   138    1
    84    31   139    1
    85    33    93    1
    86    33   109    1
    87    33    58    1
    88    33   140    1
    89    34    46    2
    90    35    39    1
    91    36    38    1
    92    36    88    2
    93    36    77    1
    94    37    65    1
    95    38   141    1
    96    39   107    1
    97    39   142    1
    98    40    61    2
    99    41    85    1
   100    42    66    1
   101    42    87    1
   102    43    57    1
   103    43    72    1
   104    44   101    1
   105    45    95    1
   106    46    74    1
   107    46    70    1
   108    47    53    2
   109    48    68    2
   110    49    53    2
   111    50   107    1
   112    50   105    1
   113    50    90    1
   114    50   143    1
   115    51    79    1
   116    51   144    1
   117    51   145    1
   118    51   146    1
   119    52   105    1
   120    52   100    1
   121    52   147    1
   122    52   148    1
   123    53   100    1
   124    53    63    1
   125    54   105    1
   126    54    84    1
   127    55    68    2
   128    56    94    1
   129    57   103    1
   130    57    69    1
   131    57   149    1
   132    58    66    1
   133    58   150    1
   134    59   151    1
   135    60    97    1
   136    61    76    1
   137    62   102    1
   138    63   153    1
   139    64    90    1
   140    65   154    1
   141    65   155    1
   142    65   156    1
   143    66    83    1
   144    66   157    1
   145    67    96    1
   146    67   158    1
   147    67   159    1
   148    67   160    1
   149    68    92    1
   150    68   104    1
   151    69   161    1
   152    69   162    1
   153    69   163    1
   154    70   164    1
   155    71   109    1
   156    71   165    1
   157    71   166    1
   158    71   167    1
   159    72    78    1
   160    72    93    1
   161    72   168    1
   162    73   110    1
   163    73   169    1
   164    74    75    1
   165    75   102    1
   166    75   106    1
   167    75   170    1
   168    77   171    1
   169    78    79    1
   170    78   172    1
   171    80   173    1
   172    83    99    1
   173    83    98    1
   174    83   174    1
   175    84   175    1
   176    84   176    1
   177    85    97    1
   178    85   177    1
   179    86   110    1
   180    86   178    1
   181    86   179    1
   182    86   180    1
   183    87   181    1
   184    87   182    1
   185    87   183    1
   186    90   184    1
   187    91   108    1
   188    91   185    1
   189    91   186    1
   190    91   187    1
   191    94   188    1
   192    95   189    1
   193    95   190    1
   194    95   191    1
   195    97   192    1
   196    99   109    1
   197   101   102    1
   198   101   193    1
   199   102   194    1
   200   103   195    1
   201   103   196    1
   202   104   197    1
   203   105   198    1
   204   106   199    1
   205   109   200    1
