@<TRIPOS>MOLECULE
1TB6_LIGAND_1.pdb
 498 513 0 0 0
SMALL
GASTEIGER

@<TRIPOS>ATOM
      1  C3        57.9310   -1.3180   -9.2950 C.3   445  GU1445      0.1182
      2  C1        51.8350   -2.8730    2.3790 C.3   442  GU9442      0.1887
      3  C4        47.3350   -4.1550   39.1460 C.3   434  GU6434      0.1212
      4  C7        59.3710   -4.9390  -22.0920 C.3   447  GU2447      0.0371
      5  C7        58.9530    0.8210   -5.5200 C.3   444  GU5444      0.0371
      6  O2        54.5570   -8.1970   23.3650 O.3   437  GU8437     -0.3721
      7  C2        57.8220   -1.2930  -10.8140 C.3   445  GU1445      0.1375
      8  O28       47.3980   -8.6590   33.0580 O.2   435  GU0435     -0.1181
      9  O6        55.4310   -3.8960    0.2590 O.3   443  GU8443     -0.3803
     10  C4        53.5420   -3.5710    4.6210 C.3   442  GU9442      0.1187
     11  O31       57.3810   -7.3910   33.1620 O.2   436  GU5436     -0.1181
     12  O1        55.4120   -3.3070   14.4760 O.3   439  GU8439     -0.3401
     13  O2        58.4050    2.5290  -22.1230 O.3   448  GU3448     -0.2047
     14  O11       45.2960   -4.5110   44.5600 O.2   433  GU4433     -0.1181
     15  O2        59.1210   -1.2800  -11.4260 O.3   445  GU1445     -0.3721
     16  O32       56.2200   -9.3050   34.1450 O.2   436  GU5436     -0.1181
     17  C4        54.1880   -7.3140   27.0390 C.3   437  GU8437      0.1187
     18  C6        58.0100   -1.5080  -16.9290 C.2   447  GU2447      0.3367
     19  C9        56.3690   -4.2390   29.2300 C.3   437  GU8437      0.0366
     20  C6        54.0630   -2.7170    9.7920 C.3   441  GU8441      0.0761
     21  O6        55.1710   -7.9770   32.4600 O.3   436  GU5436     -0.2131
     22  O5        57.3780   -2.3130  -19.1290 O.3   447  GU2447     -0.3315
     23  O25       40.4250   -5.9470   41.5020 O.2   433  GU4433     -0.1181
     24  C1        56.3050   -0.1350   -6.6930 C.3   444  GU5444      0.1887
     25  C3        57.9920   -4.9150  -18.6910 C.3   447  GU2447      0.1182
     26  C1        45.6190   -3.8680   40.7540 C.3   433  GU4433      0.1912
     27  C1        53.5290   -8.7610   28.8110 C.3   436  GU5436      0.1887
     28  C4        52.6120   -7.5060   31.2490 C.3   436  GU5436      0.1188
     29  O3        52.7650   -1.5240    5.7770 O.3   442  GU9442     -0.3744
     30  C2        49.6340   -4.5070   39.0660 C.3   434  GU6434      0.1710
     31  O1        55.6400   -3.1680   20.0090 O.3   438  GU9438     -0.3401
     32  O17       53.2360   -2.4460  -15.3500 O.2   446  GU6446     -0.1181
     33  O13       54.4680   -7.3190  -15.7710 O.2   446  GU6446     -0.1181
     34  O10       47.2680   -5.9540   44.4260 O.2   433  GU4433     -0.1181
     35  C8        53.4630   -0.3710   18.0070 C.3   439  GU8439      0.0370
     36  O53       58.2800    4.9180  -21.9240 O.2   448  GU3448     -0.1181
     37  S3        43.3150   -7.7830   42.0980 S.O2  433  GU4433      0.2079
     38  O21       61.3550   -5.8750  -11.8730 O.2   446  GU6446     -0.1181
     39  O26       53.9990   -2.6200   35.6620 O.2   435  GU0435     -0.1181
     40  C7        50.8570   -2.3370   -4.0820 C.3   443  GU8443      0.0371
     41  O3        50.4030   -8.5340   30.8670 O.3   436  GU5436     -0.3744
     42  O6        54.7870   -1.4920    9.6070 O.3   441  GU8441     -0.3803
     43  O23       52.2220   -2.3040   32.8270 O.2   435  GU0435     -0.1181
     44  C1        57.2360   -4.9010   11.1050 C.3   440  GU9440      0.1887
     45  C4        57.7440   -1.1370  -21.7070 C.3   448  GU3448      0.1188
     46  O55       56.3290    3.6240  -22.6170 O.2   448  GU3448     -0.1181
     47  O12       47.2880   -3.7690   43.3390 O.3   433  GU4433     -0.2311
     48  O3        58.6890   -0.2020   -8.7910 O.3   445  GU1445     -0.3744
     49  S6        56.0450   -7.9220   33.5900 S.O2  436  GU5436      0.2076
     50  C3        56.4220   -5.2290    8.0960 C.3   441  GU8441      0.1177
     51  O22       40.4160   -0.5800   41.0620 O.2   433  GU4433     -0.1181
     52  O15       52.6150   -6.2560  -16.9500 O.2   446  GU6446     -0.1181
     53  O1        58.5680    0.9450  -24.4040 O.3   448  GU3448     -0.3519
     54  C1        56.7800   -5.1320  -15.8810 C.3   446  GU6446      0.1912
     55  C7        58.0900   -7.8760   11.5740 C.3   440  GU9440      0.0371
     56  O1        58.5350   -2.2220  -21.1980 O.3   447  GU2447     -0.3401
     57  O5        48.2900   -4.4300   37.0000 O.3   434  GU6434     -0.3403
     58  C3        55.9610   -0.9540   -4.3520 C.3   444  GU5444      0.1177
     59  O3        50.4890   -2.2880   -0.1800 O.3   443  GU8443     -0.3744
     60  O20       60.2150   -4.2210  -10.4760 O.2   446  GU6446     -0.1181
     61  C6        57.0730   -1.5920   12.7960 C.3   440  GU9440      0.0761
     62  S2        50.0390   -6.3720   40.3940 S.O2  434  GU6434      0.2080
     63  C8        57.2970   -6.2610   15.2210 C.3   440  GU9440      0.0370
     64  O1        55.9500   -4.8930   10.4630 O.3   440  GU9440     -0.3401
     65  C8        49.9640   -3.4220   -0.8810 C.3   443  GU8443      0.0370
     66  C5        55.9040   -2.7020   -9.1910 C.3   445  GU1445      0.1863
     67  O6        59.0910   -5.2280  -12.3430 O.3   446  GU6446     -0.2131
     68  O2        58.4710   -5.2730  -21.0310 O.3   447  GU2447     -0.3721
     69  C3        51.6430   -8.1370   30.2550 C.3   436  GU5436      0.1177
     70  O3        56.7890   -3.1380   23.9560 O.3   438  GU9438     -0.3744
     71  S3        53.6270   -2.3380  -13.9060 S.O2  446  GU6446      0.2079
     72  C1        53.3950   -1.4700   -2.4280 C.3   443  GU8443      0.1887
     73  O3        56.3100   -0.7470   -2.9730 O.3   444  GU5444     -0.3744
     74  C8        60.0400   -6.0550  -18.1310 C.3   447  GU2447      0.0370
     75  C2        54.8790   -7.5390   24.6030 C.3   437  GU8437      0.1374
     76  O2        55.1810   -0.8100   15.8180 O.3   439  GU8439     -0.3721
     77  O22       54.6610   -2.4440   32.7450 O.2   435  GU0435     -0.1181
     78  C1        57.0970   -2.5470  -11.2750 C.3   445  GU1445      0.1893
     79  S6        44.3360   -3.2370   35.5420 S.O2  434  GU6434      0.2076
     80  O5        54.9930   -5.4180   25.7460 O.3   437  GU8437     -0.3405
     81  C6        52.6010   -5.0450   22.3390 C.3   438  GU9438      0.0761
     82  O6        55.8600   -5.2910   28.4050 O.3   437  GU8437     -0.3803
     83  O13       51.0440   -7.4840   40.4290 O.3   434  GU6434     -0.2311
     84  O1        52.7380   -2.0360    1.6360 O.3   442  GU9442     -0.3401
     85  O5        54.8960    0.1510   -6.7600 O.3   444  GU5444     -0.3404
     86  C9        54.6220   -7.5790   18.3020 C.3   439  GU8439      0.0366
     87  C4        52.9060   -2.4310    0.2640 C.3   443  GU8443      0.1187
     88  C6        55.9240   -5.6610   18.5670 C.3   439  GU8439      0.0761
     89  O5        57.8860   -5.1820  -14.9610 O.3   446  GU6446     -0.3403
     90  O54       57.1560    3.4670  -20.3110 O.3   448  GU3448     -0.2311
     91  O3        43.2170   -6.3610   42.2550 O.3   433  GU4433     -0.2068
     92  C7        50.8010   -9.3600   27.6580 C.3   436  GU5436      0.0371
     93  C5        56.0230   -4.2840   17.9290 C.3   439  GU8439      0.1136
     94  C8        58.7990   -4.8690    8.2530 C.3   441  GU8441      0.0370
     95  C3        52.9100   -2.1900    4.5100 C.3   442  GU9442      0.1177
     96  C5        50.6050   -6.9170   35.0640 C.3   435  GU0435      0.1161
     97  S2        46.4330   -4.9520   43.6850 S.O2  433  GU4433      0.2080
     98  O1        52.0730   -6.2940   31.8000 O.3   435  GU0435     -0.3400
     99  O3        58.7420    0.4840  -20.1880 O.3   448  GU3448     -0.3743
    100  O31       50.0540    0.9910   -5.3160 O.2   444  GU5444     -0.1181
    101  O16       48.3920   -0.8920   41.6090 O.2   434  GU6434     -0.1181
    102  O5        53.6040   -3.1450   21.2330 O.3   438  GU9438     -0.3405
    103  C5        54.5710   -3.7700    8.8200 C.3   441  GU8441      0.1136
    104  O14       54.8570   -6.2040  -17.9190 O.3   446  GU6446     -0.2311
    105  C2        55.5730   -2.0580   22.1280 C.3   438  GU9438      0.1374
    106  C9        58.7470   -0.2990   13.7990 C.3   440  GU9440      0.0366
    107  C4        42.8490   -4.7620   40.4690 C.3   433  GU4433      0.1490
    108  S6        41.2110   -0.8400   39.8160 S.O2  433  GU4433      0.2076
    109  C5        58.0330   -3.9860  -14.1750 C.3   446  GU6446      0.1161
    110  C2        55.4800   -4.9680  -15.0890 C.3   446  GU6446      0.1710
    111  O1        55.3300   -5.4550   23.4230 O.3   437  GU8437     -0.3401
    112  O2        58.1660   -0.3090   -5.1290 O.3   444  GU5444     -0.3721
    113  C6        56.5710   -2.6540  -23.3380 C.3   448  GU3448      0.1076
    114  O2        50.9110   -1.0100    3.6980 O.3   442  GU9442     -0.3721
    115  O2        56.9120   -7.1640   11.9660 O.3   440  GU9440     -0.3721
    116  C8        58.1990    1.0810   -9.1980 C.3   445  GU1445      0.0370
    117  O30       46.6200   -8.7360   35.3810 O.2   435  GU0435     -0.1181
    118  O3        57.7180   -5.8040    8.3440 O.3   441  GU8441     -0.3744
    119  C3        48.5650   -3.9390   39.7490 C.3   434  GU6434      0.1514
    120  C2        56.3570   -4.5850    6.7170 C.3   441  GU8441      0.1374
    121  C7        59.4340    0.0250  -11.9210 C.3   445  GU1445      0.0371
    122  O52       54.8540   -4.8660  -22.5780 O.2   448  GU3448     -0.1181
    123  C2        52.3070   -9.3060   29.5370 C.3   436  GU5436      0.1374
    124  C1        54.9280   -4.1180    6.4800 C.3   441  GU8441      0.1887
    125  O5        52.3840   -4.1910    2.5470 O.3   442  GU9442     -0.3405
    126  C7        57.7130   -1.7640   21.0540 C.3   438  GU9438      0.0371
    127  C8        57.4930   -1.4710   -2.6200 C.3   444  GU5444      0.0370
    128  O50       53.7510   -3.4780  -24.2680 O.2   448  GU3448     -0.1181
    129  O2        51.0150   -1.5870   -2.8730 O.3   443  GU8443     -0.3721
    130  C1        57.3550    0.9700  -23.6370 C.3   448  GU3448      0.1903
    131  O2        56.7230   -5.5710    5.7400 O.3   441  GU8441     -0.3721
    132  C7        59.9120   -0.1800  -19.7010 C.3   448  GU3448      0.0370
    133  C8        56.0900   -2.4300   24.9870 C.3   438  GU9438      0.0370
    134  O3        51.7250   -3.3830   35.6300 O.3   435  GU0435     -0.2069
    135  S6        51.1570    1.6750   -6.0650 S.O2  444  GU5444      0.2076
    136  C4        56.7840   -3.7050  -13.3480 C.3   446  GU6446      0.1212
    137  C4        50.5520   -5.4910   35.6020 C.3   435  GU0435      0.1212
    138  C6        46.2250   -3.0710   37.1050 C.3   434  GU6434      0.1076
    139  O6        42.0940   -1.9430   40.0450 O.3   433  GU4433     -0.2131
    140  O5        54.4510   -8.2700   29.7980 O.3   436  GU5436     -0.3404
    141  O2        56.6830   -1.1810   21.8620 O.3   438  GU9438     -0.3721
    142  O5        55.6180   -4.3860   16.5540 O.3   439  GU8439     -0.3405
    143  S6        54.2790   -3.5110  -22.8650 S.O2  448  GU3448      0.2076
    144  C9        54.1240   -0.4320   10.3020 C.3   441  GU8441      0.0366
    145  C3        55.3300   -1.9240   17.9400 C.3   439  GU8439      0.1177
    146  O17       48.4710   -1.3470   39.2230 O.2   434  GU6434     -0.1181
    147  C3        56.0000   -3.3680   22.7760 C.3   438  GU9438      0.1177
    148  O2        50.5860   -5.2470   39.6930 O.3   434  GU6434     -0.2046
    149  O3        54.1060   -9.4680   25.8830 O.3   437  GU8437     -0.3744
    150  C6        54.9510   -6.8270   31.6390 C.3   436  GU5436      0.1076
    151  C9        50.4310   -5.7010   21.8130 C.3   438  GU9438      0.0366
    152  O38       54.3270   -3.4510   -7.5470 O.2   445  GU1445     -0.2480
    153  O1        56.9160   -2.4330  -12.6950 O.3   445  GU1445     -0.3400
    154  O6        58.3640   -1.6250   13.4230 O.3   440  GU9440     -0.3803
    155  O1        56.5940   -1.4360   -7.2320 O.3   444  GU5444     -0.3396
    156  O23       40.2730   -1.1540   38.6870 O.2   433  GU4433     -0.1181
    157  O21       44.5150   -1.7490   35.6030 O.2   434  GU6434     -0.1181
    158  C5        54.1120   -5.8090   26.8120 C.3   437  GU8437      0.1136
    159  C4        55.9720   -4.2520    9.1760 C.3   441  GU8441      0.1187
    160  O14       48.8080   -6.8720   39.6990 O.2   434  GU6434     -0.1181
    161  C4        56.4850   -3.8460   13.6880 C.3   440  GU9440      0.1187
    162  C9        56.7140   -4.4210    0.6090 C.3   443  GU8443      0.0366
    163  C6        54.2030   -5.5910    3.3140 C.3   442  GU9442      0.0761
    164  O18       52.3880   -2.2610  -13.0650 O.2   446  GU6446     -0.1181
    165  C2        54.9300   -2.0610   16.4760 C.3   439  GU8439      0.1374
    166  O24       40.1250   -4.1340   39.8890 O.2   433  GU4433     -0.1181
    167  C5        54.2320   -1.8560   -0.2200 C.3   443  GU8443      0.1136
    168  C3        51.8460   -4.7570   35.2380 C.3   435  GU0435      0.1514
    169  C2        44.9590   -4.7310   41.8340 C.3   433  GU4433      0.1711
    170  O51       53.1570   -3.2310  -21.9090 O.3   448  GU3448     -0.2311
    171  C3        53.9760   -8.0450   25.7180 C.3   437  GU8437      0.1177
    172  S3        52.7700   -2.8880   36.4790 S.O2  435  GU0435      0.2079
    173  C4        55.1650   -3.2580   18.6560 C.3   439  GU8439      0.1187
    174  O1        46.2840   -4.7140   39.8040 O.3   433  GU4433     -0.3400
    175  C3        56.2000   -5.2940   13.3090 C.3   440  GU9440      0.1177
    176  C6        54.4920   -5.0260   28.0600 C.3   437  GU8437      0.0761
    177  C8        51.9200   -2.2230    6.6990 C.3   442  GU9442      0.0370
    178  C6        52.6120   -0.3480   -6.1590 C.3   444  GU5444      0.1076
    179  O37       53.5320   -2.3640   -9.1960 O.3   445  GU1445     -0.4788
    180  C4        58.0920   -3.9450  -17.5180 C.3   447  GU2447      0.1269
    181  C8        50.5360   -9.5910   31.8240 C.3   436  GU5436      0.0370
    182  O6        45.3170   -3.8780   36.3580 O.3   434  GU6434     -0.2131
    183  O5        54.4320   -2.0640   -1.6290 O.3   443  GU8443     -0.3405
    184  C2        56.7650   -0.0180   -5.2460 C.3   444  GU5444      0.1374
    185  C2        52.0890   -4.8400   33.7260 C.3   435  GU0435      0.1710
    186  O27       53.1010   -3.8700   37.5640 O.2   435  GU0435     -0.1181
    187  O3        56.0940   -6.1660   14.4490 O.3   440  GU9440     -0.3744
    188  O29       45.9350   -6.8990   33.9270 O.3   435  GU0435     -0.2311
    189  C6        42.5510   -2.7800   38.9780 C.3   433  GU4433      0.1077
    190  C7        54.3500   -0.6690   14.6610 C.3   439  GU8439      0.0371
    191  C3        51.7950   -1.8560   -0.6060 C.3   443  GU8443      0.1177
    192  C7        55.6360   -8.0980   22.4300 C.3   437  GU8437      0.0371
    193  O1        56.8800   -3.9930  -16.7500 O.3   446  GU6446     -0.3395
    194  O18       50.4990   -1.5540   40.5790 O.3   434  GU6434     -0.2311
    195  O2        51.4130  -10.0890   28.7260 O.3   436  GU5436     -0.3721
    196  C5        43.5570   -3.8120   39.4940 C.3   433  GU4433      0.1183
    197  C4        54.4640   -0.6630   -4.4950 C.3   444  GU5444      0.1188
    198  O24       53.3130   -3.6870   31.1240 O.3   435  GU0435     -0.2311
    199  O2        45.9330   -5.5520   42.4860 O.3   433  GU4433     -0.2046
    200  C5        53.9250   -7.1650   30.5560 C.3   436  GU5436      0.1160
    201  S2        57.5530    3.6170  -21.7500 S.O2  448  GU3448      0.2080
    202  O6        48.2030   -7.0770   34.6600 O.3   435  GU0435     -0.2131
    203  C5        53.6500   -4.1770    3.2280 C.3   442  GU9442      0.1136
    204  C1        55.7950   -3.1460   15.8500 C.3   439  GU8439      0.1887
    205  O1        50.3670   -5.5170   37.0260 O.3   434  GU6434     -0.3400
    206  O20       44.5020   -3.7080   34.1280 O.2   434  GU6434     -0.1181
    207  C2        51.5880   -2.2790    3.7590 C.3   442  GU9442      0.1374
    208  S4        40.6160   -5.5400   40.0710 S.O2  433  GU4433      0.2079
    209  S6        47.0560   -7.8360   34.2640 S.O2  435  GU0435      0.2076
    210  O32       50.8630    1.6280   -7.5340 O.2   444  GU5444     -0.1181
    211  S2        54.0790   -6.1560  -16.6370 S.O2  446  GU6446      0.2080
    212  O3        48.7140   -3.1380   40.8360 O.3   434  GU6434     -0.2069
    213  O33       55.4560   -7.0280   34.6410 O.3   436  GU5436     -0.2311
    214  C2        58.5490   -4.3060  -19.9710 C.3   447  GU2447      0.1375
    215  S3        49.0140   -1.7620   40.5580 S.O2  434  GU6434      0.2079
    216  O2        53.3930   -4.3270   33.4340 O.3   435  GU0435     -0.2046
    217  O5        57.6000   -3.5740   11.5220 O.3   440  GU9440     -0.3405
    218  O6        53.3410   -6.4120    4.1150 O.3   442  GU9442     -0.3803
    219  C4        56.5460   -1.4240   -8.6690 C.3   445  GU1445      0.1269
    220  C1        54.6160   -6.0450   24.5110 C.3   437  GU8437      0.1887
    221  C5        53.8940   -4.4120   21.8500 C.3   438  GU9438      0.1136
    222  C5        47.2890   -3.9290   37.7800 C.3   434  GU6434      0.1161
    223  O16       54.4410   -1.0920  -13.7140 O.3   446  GU6446     -0.2311
    224  C5        58.2870   -2.5280  -18.0370 C.3   447  GU2447      0.1863
    225  O6        55.2930   -2.5110  -22.7130 O.3   448  GU3448     -0.2131
    226  O3        54.3750   -3.4910  -13.5040 O.3   446  GU6446     -0.2069
    227  O1        53.1320   -7.6970   27.9320 O.3   436  GU5436     -0.3401
    228  O6        52.4010    1.0200   -5.7990 O.3   444  GU5444     -0.2131
    229  O29       44.7490   -8.2160   42.1800 O.2   433  GU4433     -0.1181
    230  O6        51.6540   -5.1940   21.2730 O.3   438  GU9438     -0.3803
    231  O5        54.5550   -3.1850    7.5070 O.3   441  GU8441     -0.3405
    232  C5        57.4090   -1.3840  -23.1720 C.3   448  GU3448      0.1160
    233  O49       56.8640   -1.0880  -16.7540 O.2   447  GU2447     -0.2480
    234  C8        58.2640    0.8960  -25.8010 C.3   448  GU3448      0.0395
    235  O5        55.8200   -2.6770  -10.6270 O.3   445  GU1445     -0.3315
    236  C2        52.0740   -2.1390   -2.0770 C.3   443  GU8443      0.1374
    237  O1        54.8550   -3.4760    5.1970 O.3   441  GU8441     -0.3401
    238  O25       52.3260   -1.6050   37.1150 O.3   435  GU0435     -0.2311
    239  O19       59.5180   -6.5650  -10.4110 O.3   446  GU6446     -0.2311
    240  O3        58.6350   -6.1670  -18.3910 O.3   447  GU2447     -0.3744
    241  C1        49.6240   -4.4020   37.5410 C.3   434  GU6434      0.1912
    242  C9        53.8920   -7.7280    4.2070 C.3   442  GU9442      0.0366
    243  O21       42.0160    0.3790   39.4740 O.3   433  GU4433     -0.2311
    244  O26       39.8250   -6.4540   39.1830 O.3   433  GU4433     -0.2311
    245  O19       42.9660   -3.5900   36.0440 O.3   434  GU6434     -0.2311
    246  O5        44.6110   -3.0620   40.1210 O.3   433  GU4433     -0.3402
    247  C7        51.6760    0.0370    3.0900 C.3   442  GU9442      0.0371
    248  O33       51.2560    3.1050   -5.6230 O.3   444  GU5444     -0.2311
    249  C1        52.0200   -6.2900   33.2350 C.3   435  GU0435      0.1912
    250  C3        55.5660   -3.6720  -14.2770 C.3   446  GU6446      0.1514
    251  C2        57.6780    1.2980  -22.1780 C.3   448  GU3448      0.1686
    252  C1        54.7830   -2.4030   20.8730 C.3   438  GU9438      0.1887
    253  O1        53.6940   -1.6520   -3.8160 O.3   443  GU8443     -0.3401
    254  O5        56.6550   -0.2840  -23.7090 O.3   448  GU3448     -0.3404
    255  S6        60.0340   -5.4670  -11.2920 S.O2  446  GU6446      0.2076
    256  C6        59.2450   -4.1310  -13.2500 C.3   446  GU6446      0.1076
    257  C6        54.4960   -2.8470   -8.6090 C.2   445  GU1445      0.3367
    258  O5        50.7920   -6.9160   33.6390 O.3   435  GU0435     -0.3403
    259  C7        57.2110   -4.9450    4.5500 C.3   441  GU8441      0.0371
    260  C5        54.0810   -0.7380   -5.9760 C.3   444  GU5444      0.1160
    261  O48       58.9240   -1.1080  -16.2170 O.3   447  GU2447     -0.4788
    262  C3        58.5160    0.1700  -21.5700 C.3   448  GU3448      0.1201
    263  O15       49.6950   -5.9680   41.7970 O.2   434  GU6434     -0.1181
    264  S2        53.3860   -3.2070   32.5430 S.O2  435  GU0435      0.2080
    265  C6        49.3060   -7.6760   35.3460 C.3   435  GU0435      0.1076
    266  C4        54.7680   -4.2210   23.0940 C.3   438  GU9438      0.1187
    267  O27       42.7490   -8.2050   40.7750 O.3   433  GU4433     -0.2311
    268  O6        54.5830   -6.1580   18.4560 O.3   439  GU8439     -0.3803
    269  C1        57.7640   -3.0440  -20.3080 C.3   447  GU2447      0.1893
    270  C5        56.6410   -3.0030   12.4290 C.3   440  GU9440      0.1136
    271  C6        55.3980   -2.4860    0.5260 C.3   443  GU8443      0.0761
    272  O2        54.3520   -4.9180  -15.9720 O.3   446  GU6446     -0.2046
    273  C2        57.2410   -5.8120   12.3260 C.3   440  GU9440      0.1374
    274  C3        43.8720   -5.6190   41.2200 C.3   433  GU4433      0.1537
    275  O28       42.5360   -8.4470   43.1930 O.2   433  GU4433     -0.1181
    276  O4        42.0010   -5.6360   39.7160 O.3   433  GU4433     -0.2070
    277  C8        55.4300   -9.8800   26.2450 C.3   437  GU8437      0.0370
    278  O3        54.6460   -0.8700   18.6420 O.3   439  GU8439     -0.3744
    279 H          58.4802   -2.1906   -9.0091 H     445  GU1445      0.0651
    280 H          50.9180   -2.9329    1.8309 H     442  GU9442      0.0938
    281 H          46.7156   -3.4512   39.6616 H     434  GU6434      0.0651
    282 H          59.2952   -5.6718  -22.8680 H     447  GU2447      0.0524
    283 H          60.3729   -4.9191  -21.7169 H     447  GU2447      0.0524
    284 H          59.1180   -3.9763  -22.4846 H     447  GU2447      0.0524
    285 H          59.9917    0.5822   -5.4251 H     444  GU5444      0.0524
    286 H          58.7194    1.6536   -4.8898 H     444  GU5444      0.0524
    287 H          58.7362    1.0718   -6.5373 H     444  GU5444      0.0524
    288 H          57.2915   -0.4085  -11.0987 H     445  GU1445      0.0674
    289 H          52.9323   -4.1865    5.2490 H     442  GU9442      0.0651
    290 H          55.1455   -7.5637   27.4460 H     437  GU8437      0.0651
    291 H          57.3883   -4.4448   29.4820 H     437  GU8437      0.0524
    292 H          55.7864   -4.1741   30.1251 H     437  GU8437      0.0524
    293 H          56.3130   -3.3112   28.6999 H     437  GU8437      0.0524
    294 H          53.0219   -2.5440    9.6155 H     441  GU8441      0.0586
    295 H          54.2072   -3.0636   10.7940 H     441  GU8441      0.0586
    296 H          56.8411    0.5741   -7.2886 H     444  GU5444      0.0938
    297 H          56.9527   -5.1112  -18.8532 H     447  GU2447      0.0651
    298 H          46.3511   -3.2200   41.1888 H     433  GU4433      0.0938
    299 H          53.9925   -9.5283   28.2268 H     436  GU5436      0.0938
    300 H          52.7734   -8.2154   32.0336 H     436  GU5436      0.0651
    301 H          50.3630   -3.8558   39.5012 H     434  GU6434      0.0700
    302 H          53.0354    0.4041   18.6081 H     439  GU8439      0.0524
    303 H          52.7560   -1.1663   17.8946 H     439  GU8439      0.0524
    304 H          53.7139    0.0220   17.0439 H     439  GU8439      0.0524
    305 H          50.0649   -1.9135   -4.6635 H     443  GU8443      0.0524
    306 H          50.6204   -3.3528   -3.8432 H     443  GU8443      0.0524
    307 H          51.7676   -2.3053   -4.6430 H     443  GU8443      0.0524
    308 H          57.9432   -5.2672   10.3904 H     440  GU9440      0.0938
    309 H          56.8355   -1.0716  -21.1455 H     448  GU3448      0.0651
    310 H          47.6253   -3.3646   44.1536 H     433  GU4433      0.2469
    311 H          55.7308   -6.0452    8.1260 H     441  GU8441      0.0650
    312 H          56.7916   -6.0344  -16.4558 H     446  GU6446      0.0938
    313 H          57.8288   -8.8793   11.3094 H     440  GU9440      0.0524
    314 H          58.7849   -7.8911   12.3875 H     440  GU9440      0.0524
    315 H          58.5369   -7.3899   10.7321 H     440  GU9440      0.0524
    316 H          56.1802   -1.9587   -4.6479 H     444  GU5444      0.0650
    317 H          56.3607   -1.1672   13.4721 H     440  GU9440      0.0586
    318 H          57.1272   -0.9975   11.9080 H     440  GU9440      0.0586
    319 H          57.1398   -6.9236   16.0463 H     440  GU9440      0.0524
    320 H          57.5631   -5.2916   15.5875 H     440  GU9440      0.0524
    321 H          58.0867   -6.6388   14.6058 H     440  GU9440      0.0524
    322 H          48.9961   -3.6637   -0.4941 H     443  GU8443      0.0524
    323 H          50.6195   -4.2574   -0.7495 H     443  GU8443      0.0524
    324 H          49.8843   -3.1917   -1.9229 H     443  GU8443      0.0524
    325 H          56.5100   -3.5315   -8.8917 H     445  GU1445      0.0742
    326 H          51.3938   -7.3877   29.5330 H     436  GU5436      0.0650
    327 H          53.3284   -0.4203   -2.2318 H     443  GU8443      0.0938
    328 H          60.4416   -7.0236  -17.9177 H     447  GU2447      0.0524
    329 H          60.1971   -5.4109  -17.2911 H     447  GU2447      0.0524
    330 H          60.5303   -5.6469  -18.9901 H     447  GU2447      0.0524
    331 H          55.9114   -7.7402   24.7993 H     437  GU8437      0.0674
    332 H          57.6700   -3.4152  -11.0244 H     445  GU1445      0.0938
    333 H          52.1749   -4.4233   23.0985 H     438  GU9438      0.0586
    334 H          52.8276   -6.0167   22.7255 H     438  GU9438      0.0586
    335 H          51.2675   -7.7464   39.5223 H     434  GU6434      0.2469
    336 H          53.6242   -7.9562   18.2186 H     439  GU8439      0.0524
    337 H          55.0989   -8.0171   19.1538 H     439  GU8439      0.0524
    338 H          55.1721   -7.8270   17.4184 H     439  GU8439      0.0524
    339 H          52.8811   -3.4985    0.1957 H     443  GU8443      0.0651
    340 H          56.5927   -6.3313   18.0686 H     439  GU8439      0.0586
    341 H          56.1871   -5.5884   19.6016 H     439  GU8439      0.0586
    342 H          57.9508    3.4631  -19.7550 H     448  GU3448      0.2469
    343 H          50.1550  -10.0106   27.1063 H     436  GU5436      0.0524
    344 H          51.5592   -8.9754   27.0083 H     436  GU5436      0.0524
    345 H          50.2311   -8.5488   28.0605 H     436  GU5436      0.0524
    346 H          57.0365   -3.9474   17.9955 H     439  GU8439      0.0647
    347 H          59.7229   -5.3718    8.4493 H     441  GU8441      0.0524
    348 H          58.6575   -4.0892    8.9718 H     441  GU8441      0.0524
    349 H          58.8242   -4.4475    7.2698 H     441  GU8441      0.0524
    350 H          53.5848   -1.5778    3.9489 H     442  GU9442      0.0650
    351 H          51.4244   -7.3955   35.5584 H     435  GU0435      0.0648
    352 H          53.9389   -4.6322    8.8645 H     441  GU8441      0.0647
    353 H          54.6768   -7.0407  -18.3754 H     446  GU6446      0.2469
    354 H          54.9556   -1.5044   22.8042 H     438  GU9438      0.0674
    355 H          59.7093   -0.3246   14.2662 H     440  GU9440      0.0524
    356 H          58.0282    0.0990   14.4844 H     440  GU9440      0.0524
    357 H          58.7900    0.3205   12.9276 H     440  GU9440      0.0524
    358 H          42.2860   -4.1846   41.1722 H     433  GU4433      0.0676
    359 H          58.1778   -3.1619  -14.8420 H     446  GU6446      0.0648
    360 H          55.3519   -5.8058  -14.4359 H     446  GU6446      0.0700
    361 H          56.4306   -2.8465  -24.3811 H     448  GU3448      0.0611
    362 H          57.0886   -3.4667  -22.8727 H     448  GU3448      0.0611
    363 H          58.8177    1.8478   -8.7808 H     445  GU1445      0.0524
    364 H          57.1943    1.2054   -8.8515 H     445  GU1445      0.0524
    365 H          58.2190    1.1481  -10.2657 H     445  GU1445      0.0524
    366 H          48.6327   -4.1486   40.7961 H     434  GU6434      0.0677
    367 H          57.0233   -3.7509    6.6454 H     441  GU8441      0.0674
    368 H          60.4042    0.0121  -12.3721 H     445  GU1445      0.0524
    369 H          59.4262    0.7248  -11.1116 H     445  GU1445      0.0524
    370 H          58.7057    0.3142  -12.6496 H     445  GU1445      0.0524
    371 H          52.6263  -10.0352   30.2520 H     436  GU5436      0.0674
    372 H          54.2617   -4.9549    6.5040 H     441  GU8441      0.0938
    373 H          58.4960   -1.0502   20.9046 H     438  GU9438      0.0524
    374 H          57.3048   -2.0492   20.1069 H     438  GU9438      0.0524
    375 H          58.1072   -2.6279   21.5472 H     438  GU9438      0.0524
    376 H          57.7245   -1.2957   -1.5902 H     444  GU5444      0.0524
    377 H          58.3081   -1.1415   -3.2299 H     444  GU5444      0.0524
    378 H          57.3309   -2.5171   -2.7761 H     444  GU5444      0.0524
    379 H          56.7185    1.7246  -24.0497 H     448  GU3448      0.0938
    380 H          60.0603    0.0684  -18.6708 H     448  GU3448      0.0524
    381 H          60.7626    0.1334  -20.2695 H     448  GU3448      0.0524
    382 H          59.7881   -1.2383  -19.7985 H     448  GU3448      0.0524
    383 H          56.7364   -2.2963   25.8291 H     438  GU9438      0.0524
    384 H          55.2287   -2.9911   25.2840 H     438  GU9438      0.0524
    385 H          55.7828   -1.4738   24.6178 H     438  GU9438      0.0524
    386 H          56.6605   -4.4717  -12.6119 H     446  GU6446      0.0651
    387 H          49.7274   -4.9705   35.1615 H     435  GU0435      0.0651
    388 H          46.7019   -2.3774   36.4443 H     434  GU6434      0.0611
    389 H          45.6759   -2.5505   37.8616 H     434  GU6434      0.0611
    390 H          54.6660    0.4799   10.1623 H     441  GU8441      0.0524
    391 H          54.0784   -0.6635   11.3457 H     441  GU8441      0.0524
    392 H          53.1317   -0.3195    9.9179 H     441  GU8441      0.0524
    393 H          56.3614   -1.6393   17.9435 H     439  GU8439      0.0650
    394 H          56.6166   -3.9011   22.0828 H     438  GU9438      0.0650
    395 H          55.8721   -6.5349   31.1795 H     436  GU5436      0.0611
    396 H          54.5832   -6.0228   32.2414 H     436  GU5436      0.0611
    397 H          49.7148   -5.8169   21.0265 H     438  GU9438      0.0524
    398 H          50.0520   -5.0159   22.5424 H     438  GU9438      0.0524
    399 H          50.6109   -6.6496   22.2742 H     438  GU9438      0.0524
    400 H          53.0967   -5.5855   26.5590 H     437  GU8437      0.0647
    401 H          56.6547   -3.4296    9.2263 H     441  GU8441      0.0651
    402 H          57.3888   -3.8225   14.2603 H     440  GU9440      0.0651
    403 H          56.7360   -5.4719    0.4091 H     443  GU8443      0.0524
    404 H          56.8967   -4.2520    1.6497 H     443  GU8443      0.0524
    405 H          57.4695   -3.9320    0.0302 H     443  GU8443      0.0524
    406 H          55.1767   -5.5634    3.7569 H     442  GU9442      0.0586
    407 H          54.2616   -6.0036    2.3285 H     442  GU9442      0.0586
    408 H          53.8953   -2.3168   16.3822 H     439  GU8439      0.0674
    409 H          54.1918   -0.8043   -0.0272 H     443  GU8443      0.0647
    410 H          52.6707   -5.2115   35.7461 H     435  GU0435      0.0677
    411 H          44.5136   -4.0772   42.5545 H     433  GU4433      0.0700
    412 H          52.4692   -3.9074  -22.0106 H     448  GU3448      0.2469
    413 H          52.9727   -7.8290   25.4153 H     437  GU8437      0.0650
    414 H          54.1304   -3.5310   18.6622 H     439  GU8439      0.0651
    415 H          55.2414   -5.2991   12.8337 H     440  GU9440      0.0650
    416 H          54.3694   -3.9796   27.8734 H     437  GU8437      0.0586
    417 H          53.8600   -5.3253   28.8699 H     437  GU8437      0.0586
    418 H          51.8586   -1.6724    7.6144 H     442  GU9442      0.0524
    419 H          52.3288   -3.1927    6.8928 H     442  GU9442      0.0524
    420 H          50.9415   -2.3260    6.2784 H     442  GU9442      0.0524
    421 H          52.0035   -0.9719   -5.5383 H     444  GU5444      0.0611
    422 H          52.3488   -0.4763   -7.1881 H     444  GU5444      0.0611
    423 H          53.6570   -1.9045  -10.0030 H     445  GU1445      0.2951
    424 H          58.9241   -4.2238  -16.9058 H     447  GU2447      0.0656
    425 H          49.5749   -9.8265   32.2312 H     436  GU5436      0.0524
    426 H          51.1902   -9.2792   32.6112 H     436  GU5436      0.0524
    427 H          50.9422  -10.4571   31.3447 H     436  GU5436      0.0524
    428 H          56.6002    0.9902   -4.9279 H     444  GU5444      0.0674
    429 H          51.3313   -4.2685   33.2318 H     435  GU0435      0.0700
    430 H          45.1559   -7.4104   33.6581 H     435  GU0435      0.2469
    431 H          43.0210   -2.1735   38.2322 H     433  GU4433      0.0611
    432 H          41.7114   -3.2960   38.5612 H     433  GU4433      0.0611
    433 H          54.5538    0.2687   14.1876 H     439  GU8439      0.0524
    434 H          53.3215   -0.7045   14.9541 H     439  GU8439      0.0524
    435 H          54.5535   -1.4658   13.9765 H     439  GU8439      0.0524
    436 H          51.7885   -0.7929   -0.4845 H     443  GU8443      0.0650
    437 H          55.3675   -8.5954   21.5215 H     437  GU8437      0.0524
    438 H          56.5095   -8.5574   22.8434 H     437  GU8437      0.0524
    439 H          55.8378   -7.0672   22.2261 H     437  GU8437      0.0524
    440 H          50.6978   -0.6234   40.3908 H     434  GU6434      0.2469
    441 H          43.9652   -4.4228   38.7161 H     433  GU4433      0.0648
    442 H          54.2698    0.3051   -4.0826 H     444  GU5444      0.0651
    443 H          53.3085   -2.9244   30.5245 H     435  GU0435      0.2469
    444 H          53.7412   -6.3523   29.8847 H     436  GU5436      0.0648
    445 H          54.3181   -3.5615    2.6626 H     442  GU9442      0.0647
    446 H          56.8254   -2.8638   15.9102 H     439  GU8439      0.0938
    447 H          50.9277   -2.9273    4.2963 H     442  GU9442      0.0674
    448 H          56.0512   -6.9928   35.4061 H     436  GU5436      0.2469
    449 H          59.5765   -4.0371  -19.8409 H     447  GU2447      0.0674
    450 H          55.9704   -0.5638   -8.9405 H     445  GU1445      0.0656
    451 H          53.5715   -5.8961   24.3329 H     437  GU8437      0.0938
    452 H          54.3909   -5.0197   21.1229 H     438  GU9438      0.0647
    453 H          46.3822   -4.3563   38.1543 H     434  GU6434      0.0648
    454 H          55.2424   -1.1423  -14.2582 H     446  GU6446      0.2469
    455 H          59.2981   -2.4039  -18.3643 H     447  GU2447      0.0742
    456 H          58.3367   -1.4902  -23.6946 H     448  GU3448      0.0648
    457 H          59.1740    0.8777  -26.3636 H     448  GU3448      0.0525
    458 H          57.6941    1.7600  -26.0725 H     448  GU3448      0.0525
    459 H          57.6965    0.0137  -26.0118 H     448  GU3448      0.0525
    460 H          52.1291   -3.1910   -2.2646 H     443  GU8443      0.0674
    461 H          52.1084   -0.9599   36.4240 H     435  GU0435      0.2469
    462 H          60.1527   -6.7317   -9.6967 H     446  GU6446      0.2469
    463 H          50.0591   -3.4668   37.2565 H     434  GU6434      0.0938
    464 H          53.2507   -8.3422    4.8040 H     442  GU9442      0.0524
    465 H          54.8605   -7.6784    4.6591 H     442  GU9442      0.0524
    466 H          53.9771   -8.1484    3.2267 H     442  GU9442      0.0524
    467 H          42.6220    0.5815   40.2038 H     433  GU4433      0.2469
    468 H          38.8849   -6.3966   39.4152 H     433  GU4433      0.2469
    469 H          42.8457   -4.5518   36.0063 H     434  GU6434      0.2469
    470 H          51.1030    0.9406    3.0849 H     442  GU9442      0.0524
    471 H          51.9193   -0.2367    2.0846 H     442  GU9442      0.0524
    472 H          52.5773    0.1894    3.6462 H     442  GU9442      0.0524
    473 H          51.4463    3.1372   -4.6724 H     444  GU5444      0.2469
    474 H          52.8417   -6.8295   33.6577 H     435  GU0435      0.0938
    475 H          55.6691   -2.8531  -14.9579 H     446  GU6446      0.0677
    476 H          56.7698    1.3956  -21.6207 H     448  GU3448      0.0699
    477 H          54.4644   -1.5180   20.3629 H     438  GU9438      0.0938
    478 H          60.1185   -4.2940  -13.8461 H     446  GU6446      0.0611
    479 H          59.3350   -3.2331  -12.6751 H     446  GU6446      0.0611
    480 H          57.4779   -5.6957    3.8358 H     441  GU8441      0.0524
    481 H          58.0716   -4.3543    4.7850 H     441  GU8441      0.0524
    482 H          56.4485   -4.3168    4.1391 H     441  GU8441      0.0524
    483 H          54.2370   -1.7438   -6.3060 H     444  GU5444      0.0648
    484 H          59.7951   -1.4268  -16.3495 H     447  GU2447      0.2951
    485 H          59.4566    0.0672  -22.0695 H     448  GU3448      0.0651
    486 H          49.1134   -7.6610   36.3984 H     435  GU0435      0.0611
    487 H          49.4171   -8.6822   34.9995 H     435  GU0435      0.0611
    488 H          54.1522   -3.7836   23.8519 H     438  GU9438      0.0651
    489 H          41.8214   -7.9273   40.7168 H     433  GU4433      0.2469
    490 H          56.8566   -3.3356  -20.7943 H     447  GU2447      0.0938
    491 H          55.6901   -2.9777   11.9390 H     440  GU9440      0.0647
    492 H          56.3137   -2.0395    0.1989 H     443  GU8443      0.0586
    493 H          55.2780   -2.3247    1.5769 H     443  GU8443      0.0586
    494 H          58.2191   -5.8094   12.7599 H     440  GU9440      0.0674
    495 H          44.3263   -6.2975   40.5285 H     433  GU4433      0.0677
    496 H          55.4558  -10.9444   26.3510 H     437  GU8437      0.0524
    497 H          55.7049   -9.4225   27.1724 H     437  GU8437      0.0524
    498 H          56.1178   -9.5807   25.4819 H     437  GU8437      0.0524
@<TRIPOS>BOND
     1     1     7    1
     2     1    48    1
     3     1   219    1
     4     2   125    1
     5     2   207    1
     6     2    84    1
     7     3   174    1
     8     3   119    1
     9     3   222    1
    10     4    68    1
    11     5   112    1
    12     6    75    1
    13     6   192    1
    14     7    78    1
    15     7    15    1
    16     8   209    2
    17     9   162    1
    18     9   271    1
    19    10   237    1
    20    10   203    1
    21    10    95    1
    22    11    49    2
    23    12   204    1
    24    12   161    1
    25    13   251    1
    26    13   201    1
    27    14    97    2
    28    15   121    1
    29    16    49    2
    30    17   227    1
    31    17   158    1
    32    17   171    1
    33    18   224    1
    34    18   233    2
    35    18   261    1
    36    19    82    1
    37    20    42    1
    38    20   103    1
    39    21   150    1
    40    21    49    1
    41    22   269    1
    42    22   224    1
    43    23   208    2
    44    24   155    1
    45    24   184    1
    46    24    85    1
    47    25   214    1
    48    25   240    1
    49    25   180    1
    50    26   174    1
    51    26   246    1
    52    26   169    1
    53    27   227    1
    54    27   123    1
    55    27   140    1
    56    28    98    1
    57    28    69    1
    58    28   200    1
    59    29    95    1
    60    29   177    1
    61    30   241    1
    62    30   148    1
    63    30   119    1
    64    31   252    1
    65    31   173    1
    66    32    71    2
    67    33   211    2
    68    34    97    2
    69    35   278    1
    70    36   201    2
    71    37    91    1
    72    37   275    2
    73    37   229    2
    74    37   267    1
    75    38   255    2
    76    39   172    2
    77    40   129    1
    78    41    69    1
    79    41   181    1
    80    42   144    1
    81    43   264    2
    82    44   217    1
    83    44   273    1
    84    44    64    1
    85    45    56    1
    86    45   232    1
    87    45   262    1
    88    46   201    2
    89    47    97    1
    90    48   116    1
    91    49   213    1
    92    50   120    1
    93    50   118    1
    94    50   159    1
    95    51   108    2
    96    52   211    2
    97    53   130    1
    98    53   234    1
    99    54   193    1
   100    54   110    1
   101    54    89    1
   102    55   115    1
   103    56   269    1
   104    57   241    1
   105    57   222    1
   106    58   184    1
   107    58    73    1
   108    58   197    1
   109    59   191    1
   110    59    65    1
   111    60   255    2
   112    61   270    1
   113    61   154    1
   114    62   148    1
   115    62   160    2
   116    62   263    2
   117    62    83    1
   118    63   187    1
   119    64   159    1
   120    66   235    1
   121    66   257    1
   122    66   219    1
   123    67   256    1
   124    67   255    1
   125    68   214    1
   126    69   123    1
   127    70   147    1
   128    70   133    1
   129    71   226    1
   130    71   164    2
   131    71   223    1
   132    72   183    1
   133    72   253    1
   134    72   236    1
   135    73   127    1
   136    74   240    1
   137    75   220    1
   138    75   171    1
   139    76   165    1
   140    76   190    1
   141    77   264    2
   142    78   153    1
   143    78   235    1
   144    79   182    1
   145    79   206    2
   146    79   157    2
   147    79   245    1
   148    80   158    1
   149    80   220    1
   150    81   221    1
   151    81   230    1
   152    82   176    1
   153    84    87    1
   154    85   260    1
   155    86   268    1
   156    87   167    1
   157    87   191    1
   158    88   268    1
   159    88    93    1
   160    89   109    1
   161    90   201    1
   162    91   274    1
   163    92   195    1
   164    93   142    1
   165    93   173    1
   166    94   118    1
   167    95   207    1
   168    96   258    1
   169    96   265    1
   170    96   137    1
   171    97   199    1
   172    98   249    1
   173    99   262    1
   174    99   132    1
   175   100   135    2
   176   101   215    2
   177   102   221    1
   178   102   252    1
   179   103   231    1
   180   103   159    1
   181   104   211    1
   182   105   147    1
   183   105   141    1
   184   105   252    1
   185   106   154    1
   186   107   196    1
   187   107   276    1
   188   107   274    1
   189   108   139    1
   190   108   156    2
   191   108   243    1
   192   109   256    1
   193   109   136    1
   194   110   272    1
   195   110   250    1
   196   111   220    1
   197   111   266    1
   198   112   184    1
   199   113   225    1
   200   113   232    1
   201   114   207    1
   202   114   247    1
   203   115   273    1
   204   117   209    2
   205   119   212    1
   206   120   124    1
   207   120   131    1
   208   122   143    2
   209   123   195    1
   210   124   231    1
   211   124   237    1
   212   125   203    1
   213   126   141    1
   214   128   143    2
   215   129   236    1
   216   130   254    1
   217   130   251    1
   218   131   259    1
   219   134   168    1
   220   134   172    1
   221   135   228    1
   222   135   210    2
   223   135   248    1
   224   136   153    1
   225   136   250    1
   226   137   205    1
   227   137   168    1
   228   138   222    1
   229   138   182    1
   230   139   189    1
   231   140   200    1
   232   142   204    1
   233   143   170    1
   234   143   225    1
   235   145   165    1
   236   145   278    1
   237   145   173    1
   238   146   215    2
   239   147   266    1
   240   149   171    1
   241   149   277    1
   242   150   200    1
   243   151   230    1
   244   152   257    2
   245   155   219    1
   246   158   176    1
   247   161   270    1
   248   161   175    1
   249   163   203    1
   250   163   218    1
   251   165   204    1
   252   166   208    2
   253   167   271    1
   254   167   183    1
   255   168   185    1
   256   169   274    1
   257   169   199    1
   258   172   186    2
   259   172   238    1
   260   175   187    1
   261   175   273    1
   262   178   260    1
   263   178   228    1
   264   179   257    1
   265   180   193    1
   266   180   224    1
   267   185   249    1
   268   185   216    1
   269   188   209    1
   270   189   196    1
   271   191   236    1
   272   194   215    1
   273   196   246    1
   274   197   253    1
   275   197   260    1
   276   198   264    1
   277   202   265    1
   278   202   209    1
   279   205   241    1
   280   208   276    1
   281   208   244    1
   282   211   272    1
   283   212   215    1
   284   214   269    1
   285   216   264    1
   286   217   270    1
   287   218   242    1
   288   221   266    1
   289   226   250    1
   290   232   254    1
   291   239   255    1
   292   249   258    1
   293   251   262    1
   294     1   279    1
   295     2   280    1
   296     3   281    1
   297     4   282    1
   298     4   283    1
   299     4   284    1
   300     5   285    1
   301     5   286    1
   302     5   287    1
   303     7   288    1
   304    10   289    1
   305    17   290    1
   306    19   291    1
   307    19   292    1
   308    19   293    1
   309    20   294    1
   310    20   295    1
   311    24   296    1
   312    25   297    1
   313    26   298    1
   314    27   299    1
   315    28   300    1
   316    30   301    1
   317    35   302    1
   318    35   303    1
   319    35   304    1
   320    40   305    1
   321    40   306    1
   322    40   307    1
   323    44   308    1
   324    45   309    1
   325    47   310    1
   326    50   311    1
   327    54   312    1
   328    55   313    1
   329    55   314    1
   330    55   315    1
   331    58   316    1
   332    61   317    1
   333    61   318    1
   334    63   319    1
   335    63   320    1
   336    63   321    1
   337    65   322    1
   338    65   323    1
   339    65   324    1
   340    66   325    1
   341    69   326    1
   342    72   327    1
   343    74   328    1
   344    74   329    1
   345    74   330    1
   346    75   331    1
   347    78   332    1
   348    81   333    1
   349    81   334    1
   350    83   335    1
   351    86   336    1
   352    86   337    1
   353    86   338    1
   354    87   339    1
   355    88   340    1
   356    88   341    1
   357    90   342    1
   358    92   343    1
   359    92   344    1
   360    92   345    1
   361    93   346    1
   362    94   347    1
   363    94   348    1
   364    94   349    1
   365    95   350    1
   366    96   351    1
   367   103   352    1
   368   104   353    1
   369   105   354    1
   370   106   355    1
   371   106   356    1
   372   106   357    1
   373   107   358    1
   374   109   359    1
   375   110   360    1
   376   113   361    1
   377   113   362    1
   378   116   363    1
   379   116   364    1
   380   116   365    1
   381   119   366    1
   382   120   367    1
   383   121   368    1
   384   121   369    1
   385   121   370    1
   386   123   371    1
   387   124   372    1
   388   126   373    1
   389   126   374    1
   390   126   375    1
   391   127   376    1
   392   127   377    1
   393   127   378    1
   394   130   379    1
   395   132   380    1
   396   132   381    1
   397   132   382    1
   398   133   383    1
   399   133   384    1
   400   133   385    1
   401   136   386    1
   402   137   387    1
   403   138   388    1
   404   138   389    1
   405   144   390    1
   406   144   391    1
   407   144   392    1
   408   145   393    1
   409   147   394    1
   410   150   395    1
   411   150   396    1
   412   151   397    1
   413   151   398    1
   414   151   399    1
   415   158   400    1
   416   159   401    1
   417   161   402    1
   418   162   403    1
   419   162   404    1
   420   162   405    1
   421   163   406    1
   422   163   407    1
   423   165   408    1
   424   167   409    1
   425   168   410    1
   426   169   411    1
   427   170   412    1
   428   171   413    1
   429   173   414    1
   430   175   415    1
   431   176   416    1
   432   176   417    1
   433   177   418    1
   434   177   419    1
   435   177   420    1
   436   178   421    1
   437   178   422    1
   438   179   423    1
   439   180   424    1
   440   181   425    1
   441   181   426    1
   442   181   427    1
   443   184   428    1
   444   185   429    1
   445   188   430    1
   446   189   431    1
   447   189   432    1
   448   190   433    1
   449   190   434    1
   450   190   435    1
   451   191   436    1
   452   192   437    1
   453   192   438    1
   454   192   439    1
   455   194   440    1
   456   196   441    1
   457   197   442    1
   458   198   443    1
   459   200   444    1
   460   203   445    1
   461   204   446    1
   462   207   447    1
   463   213   448    1
   464   214   449    1
   465   219   450    1
   466   220   451    1
   467   221   452    1
   468   222   453    1
   469   223   454    1
   470   224   455    1
   471   232   456    1
   472   234   457    1
   473   234   458    1
   474   234   459    1
   475   236   460    1
   476   238   461    1
   477   239   462    1
   478   241   463    1
   479   242   464    1
   480   242   465    1
   481   242   466    1
   482   243   467    1
   483   244   468    1
   484   245   469    1
   485   247   470    1
   486   247   471    1
   487   247   472    1
   488   248   473    1
   489   249   474    1
   490   250   475    1
   491   251   476    1
   492   252   477    1
   493   256   478    1
   494   256   479    1
   495   259   480    1
   496   259   481    1
   497   259   482    1
   498   260   483    1
   499   261   484    1
   500   262   485    1
   501   265   486    1
   502   265   487    1
   503   266   488    1
   504   267   489    1
   505   269   490    1
   506   270   491    1
   507   271   492    1
   508   271   493    1
   509   273   494    1
   510   274   495    1
   511   277   496    1
   512   277   497    1
   513   277   498    1
