@<TRIPOS>MOLECULE
1TB6_LIGAND_1_uncharged.pdb
 498 513 0 0 0
SMALL
GASTEIGER

@<TRIPOS>ATOM
      1  C3        57.9310   -1.3180   -9.2950 C.3   445  GU1445      0.1182
      2  C1        51.8350   -2.8730    2.3790 C.3   442  GU9442      0.1887
      3  C4        47.3350   -4.1550   39.1460 C.3   434  GU6434      0.1212
      4  C7        59.3710   -4.9390  -22.0920 C.3   447  GU2447      0.0371
      5  C7        58.9530    0.8210   -5.5200 C.3   444  GU5444      0.0371
      6  O2        54.5570   -8.1970   23.3650 O.3   437  GU8437     -0.3721
      7  C2        57.8220   -1.2930  -10.8140 C.3   445  GU1445      0.1375
      8  O28       47.3980   -8.6590   33.0580 O.2   435  GU0435     -0.1181
      9  O6        55.4310   -3.8960    0.2590 O.3   443  GU8443     -0.3803
     10  C4        53.5420   -3.5710    4.6210 C.3   442  GU9442      0.1187
     11  O31       57.3810   -7.3910   33.1620 O.2   436  GU5436     -0.1181
     12  O1        55.4120   -3.3070   14.4760 O.3   439  GU8439     -0.3401
     13  O2        58.4050    2.5290  -22.1230 O.3   448  GU3448     -0.2047
     14  O11       45.2960   -4.5110   44.5600 O.2   433  GU4433     -0.1181
     15  O2        59.1210   -1.2800  -11.4260 O.3   445  GU1445     -0.3721
     16  O32       56.2200   -9.3050   34.1450 O.2   436  GU5436     -0.1181
     17  C4        54.1880   -7.3140   27.0390 C.3   437  GU8437      0.1187
     18  C6        58.0100   -1.5080  -16.9290 C.2   447  GU2447      0.3367
     19  C9        56.3690   -4.2390   29.2300 C.3   437  GU8437      0.0366
     20  C6        54.0630   -2.7170    9.7920 C.3   441  GU8441      0.0761
     21  O6        55.1710   -7.9770   32.4600 O.3   436  GU5436     -0.2131
     22  O5        57.3780   -2.3130  -19.1290 O.3   447  GU2447     -0.3315
     23  O25       40.4250   -5.9470   41.5020 O.2   433  GU4433     -0.1181
     24  C1        56.3050   -0.1350   -6.6930 C.3   444  GU5444      0.1887
     25  C3        57.9920   -4.9150  -18.6910 C.3   447  GU2447      0.1182
     26  C1        45.6190   -3.8680   40.7540 C.3   433  GU4433      0.1912
     27  C1        53.5290   -8.7610   28.8110 C.3   436  GU5436      0.1887
     28  C4        52.6120   -7.5060   31.2490 C.3   436  GU5436      0.1188
     29  O3        52.7650   -1.5240    5.7770 O.3   442  GU9442     -0.3744
     30  C2        49.6340   -4.5070   39.0660 C.3   434  GU6434      0.1710
     31  O1        55.6400   -3.1680   20.0090 O.3   438  GU9438     -0.3401
     32  O17       53.2360   -2.4460  -15.3500 O.2   446  GU6446     -0.1181
     33  O13       54.4680   -7.3190  -15.7710 O.2   446  GU6446     -0.1181
     34  O10       47.2680   -5.9540   44.4260 O.2   433  GU4433     -0.1181
     35  C8        53.4630   -0.3710   18.0070 C.3   439  GU8439      0.0370
     36  O53       58.2800    4.9180  -21.9240 O.2   448  GU3448     -0.1181
     37  S3        43.3150   -7.7830   42.0980 S.O2  433  GU4433      0.2079
     38  O21       61.3550   -5.8750  -11.8730 O.2   446  GU6446     -0.1181
     39  O26       53.9990   -2.6200   35.6620 O.2   435  GU0435     -0.1181
     40  C7        50.8570   -2.3370   -4.0820 C.3   443  GU8443      0.0371
     41  O3        50.4030   -8.5340   30.8670 O.3   436  GU5436     -0.3744
     42  O6        54.7870   -1.4920    9.6070 O.3   441  GU8441     -0.3803
     43  O23       52.2220   -2.3040   32.8270 O.2   435  GU0435     -0.1181
     44  C1        57.2360   -4.9010   11.1050 C.3   440  GU9440      0.1887
     45  C4        57.7440   -1.1370  -21.7070 C.3   448  GU3448      0.1188
     46  O55       56.3290    3.6240  -22.6170 O.2   448  GU3448     -0.1181
     47  O12       47.2880   -3.7690   43.3390 O.3   433  GU4433     -0.2311
     48  O3        58.6890   -0.2020   -8.7910 O.3   445  GU1445     -0.3744
     49  S6        56.0450   -7.9220   33.5900 S.O2  436  GU5436      0.2076
     50  C3        56.4220   -5.2290    8.0960 C.3   441  GU8441      0.1177
     51  O22       40.4160   -0.5800   41.0620 O.2   433  GU4433     -0.1181
     52  O15       52.6150   -6.2560  -16.9500 O.2   446  GU6446     -0.1181
     53  O1        58.5680    0.9450  -24.4040 O.3   448  GU3448     -0.3519
     54  C1        56.7800   -5.1320  -15.8810 C.3   446  GU6446      0.1912
     55  C7        58.0900   -7.8760   11.5740 C.3   440  GU9440      0.0371
     56  O1        58.5350   -2.2220  -21.1980 O.3   447  GU2447     -0.3401
     57  O5        48.2900   -4.4300   37.0000 O.3   434  GU6434     -0.3403
     58  C3        55.9610   -0.9540   -4.3520 C.3   444  GU5444      0.1177
     59  O3        50.4890   -2.2880   -0.1800 O.3   443  GU8443     -0.3744
     60  O20       60.2150   -4.2210  -10.4760 O.2   446  GU6446     -0.1181
     61  C6        57.0730   -1.5920   12.7960 C.3   440  GU9440      0.0761
     62  S2        50.0390   -6.3720   40.3940 S.O2  434  GU6434      0.2080
     63  C8        57.2970   -6.2610   15.2210 C.3   440  GU9440      0.0370
     64  O1        55.9500   -4.8930   10.4630 O.3   440  GU9440     -0.3401
     65  C8        49.9640   -3.4220   -0.8810 C.3   443  GU8443      0.0370
     66  C5        55.9040   -2.7020   -9.1910 C.3   445  GU1445      0.1863
     67  O6        59.0910   -5.2280  -12.3430 O.3   446  GU6446     -0.2131
     68  O2        58.4710   -5.2730  -21.0310 O.3   447  GU2447     -0.3721
     69  C3        51.6430   -8.1370   30.2550 C.3   436  GU5436      0.1177
     70  O3        56.7890   -3.1380   23.9560 O.3   438  GU9438     -0.3744
     71  S3        53.6270   -2.3380  -13.9060 S.O2  446  GU6446      0.2079
     72  C1        53.3950   -1.4700   -2.4280 C.3   443  GU8443      0.1887
     73  O3        56.3100   -0.7470   -2.9730 O.3   444  GU5444     -0.3744
     74  C8        60.0400   -6.0550  -18.1310 C.3   447  GU2447      0.0370
     75  C2        54.8790   -7.5390   24.6030 C.3   437  GU8437      0.1374
     76  O2        55.1810   -0.8100   15.8180 O.3   439  GU8439     -0.3721
     77  O22       54.6610   -2.4440   32.7450 O.2   435  GU0435     -0.1181
     78  C1        57.0970   -2.5470  -11.2750 C.3   445  GU1445      0.1893
     79  S6        44.3360   -3.2370   35.5420 S.O2  434  GU6434      0.2076
     80  O5        54.9930   -5.4180   25.7460 O.3   437  GU8437     -0.3405
     81  C6        52.6010   -5.0450   22.3390 C.3   438  GU9438      0.0761
     82  O6        55.8600   -5.2910   28.4050 O.3   437  GU8437     -0.3803
     83  O13       51.0440   -7.4840   40.4290 O.3   434  GU6434     -0.2311
     84  O1        52.7380   -2.0360    1.6360 O.3   442  GU9442     -0.3401
     85  O5        54.8960    0.1510   -6.7600 O.3   444  GU5444     -0.3404
     86  C9        54.6220   -7.5790   18.3020 C.3   439  GU8439      0.0366
     87  C4        52.9060   -2.4310    0.2640 C.3   443  GU8443      0.1187
     88  C6        55.9240   -5.6610   18.5670 C.3   439  GU8439      0.0761
     89  O5        57.8860   -5.1820  -14.9610 O.3   446  GU6446     -0.3403
     90  O54       57.1560    3.4670  -20.3110 O.3   448  GU3448     -0.2311
     91  O3        43.2170   -6.3610   42.2550 O.3   433  GU4433     -0.2068
     92  C7        50.8010   -9.3600   27.6580 C.3   436  GU5436      0.0371
     93  C5        56.0230   -4.2840   17.9290 C.3   439  GU8439      0.1136
     94  C8        58.7990   -4.8690    8.2530 C.3   441  GU8441      0.0370
     95  C3        52.9100   -2.1900    4.5100 C.3   442  GU9442      0.1177
     96  C5        50.6050   -6.9170   35.0640 C.3   435  GU0435      0.1161
     97  S2        46.4330   -4.9520   43.6850 S.O2  433  GU4433      0.2080
     98  O1        52.0730   -6.2940   31.8000 O.3   435  GU0435     -0.3400
     99  O3        58.7420    0.4840  -20.1880 O.3   448  GU3448     -0.3743
    100  O31       50.0540    0.9910   -5.3160 O.2   444  GU5444     -0.1181
    101  O16       48.3920   -0.8920   41.6090 O.2   434  GU6434     -0.1181
    102  O5        53.6040   -3.1450   21.2330 O.3   438  GU9438     -0.3405
    103  C5        54.5710   -3.7700    8.8200 C.3   441  GU8441      0.1136
    104  O14       54.8570   -6.2040  -17.9190 O.3   446  GU6446     -0.2311
    105  C2        55.5730   -2.0580   22.1280 C.3   438  GU9438      0.1374
    106  C9        58.7470   -0.2990   13.7990 C.3   440  GU9440      0.0366
    107  C4        42.8490   -4.7620   40.4690 C.3   433  GU4433      0.1490
    108  S6        41.2110   -0.8400   39.8160 S.O2  433  GU4433      0.2076
    109  C5        58.0330   -3.9860  -14.1750 C.3   446  GU6446      0.1161
    110  C2        55.4800   -4.9680  -15.0890 C.3   446  GU6446      0.1710
    111  O1        55.3300   -5.4550   23.4230 O.3   437  GU8437     -0.3401
    112  O2        58.1660   -0.3090   -5.1290 O.3   444  GU5444     -0.3721
    113  C6        56.5710   -2.6540  -23.3380 C.3   448  GU3448      0.1076
    114  O2        50.9110   -1.0100    3.6980 O.3   442  GU9442     -0.3721
    115  O2        56.9120   -7.1640   11.9660 O.3   440  GU9440     -0.3721
    116  C8        58.1990    1.0810   -9.1980 C.3   445  GU1445      0.0370
    117  O30       46.6200   -8.7360   35.3810 O.2   435  GU0435     -0.1181
    118  O3        57.7180   -5.8040    8.3440 O.3   441  GU8441     -0.3744
    119  C3        48.5650   -3.9390   39.7490 C.3   434  GU6434      0.1514
    120  C2        56.3570   -4.5850    6.7170 C.3   441  GU8441      0.1374
    121  C7        59.4340    0.0250  -11.9210 C.3   445  GU1445      0.0371
    122  O52       54.8540   -4.8660  -22.5780 O.2   448  GU3448     -0.1181
    123  C2        52.3070   -9.3060   29.5370 C.3   436  GU5436      0.1374
    124  C1        54.9280   -4.1180    6.4800 C.3   441  GU8441      0.1887
    125  O5        52.3840   -4.1910    2.5470 O.3   442  GU9442     -0.3405
    126  C7        57.7130   -1.7640   21.0540 C.3   438  GU9438      0.0371
    127  C8        57.4930   -1.4710   -2.6200 C.3   444  GU5444      0.0370
    128  O50       53.7510   -3.4780  -24.2680 O.2   448  GU3448     -0.1181
    129  O2        51.0150   -1.5870   -2.8730 O.3   443  GU8443     -0.3721
    130  C1        57.3550    0.9700  -23.6370 C.3   448  GU3448      0.1903
    131  O2        56.7230   -5.5710    5.7400 O.3   441  GU8441     -0.3721
    132  C7        59.9120   -0.1800  -19.7010 C.3   448  GU3448      0.0370
    133  C8        56.0900   -2.4300   24.9870 C.3   438  GU9438      0.0370
    134  O3        51.7250   -3.3830   35.6300 O.3   435  GU0435     -0.2069
    135  S6        51.1570    1.6750   -6.0650 S.O2  444  GU5444      0.2076
    136  C4        56.7840   -3.7050  -13.3480 C.3   446  GU6446      0.1212
    137  C4        50.5520   -5.4910   35.6020 C.3   435  GU0435      0.1212
    138  C6        46.2250   -3.0710   37.1050 C.3   434  GU6434      0.1076
    139  O6        42.0940   -1.9430   40.0450 O.3   433  GU4433     -0.2131
    140  O5        54.4510   -8.2700   29.7980 O.3   436  GU5436     -0.3404
    141  O2        56.6830   -1.1810   21.8620 O.3   438  GU9438     -0.3721
    142  O5        55.6180   -4.3860   16.5540 O.3   439  GU8439     -0.3405
    143  S6        54.2790   -3.5110  -22.8650 S.O2  448  GU3448      0.2076
    144  C9        54.1240   -0.4320   10.3020 C.3   441  GU8441      0.0366
    145  C3        55.3300   -1.9240   17.9400 C.3   439  GU8439      0.1177
    146  O17       48.4710   -1.3470   39.2230 O.2   434  GU6434     -0.1181
    147  C3        56.0000   -3.3680   22.7760 C.3   438  GU9438      0.1177
    148  O2        50.5860   -5.2470   39.6930 O.3   434  GU6434     -0.2046
    149  O3        54.1060   -9.4680   25.8830 O.3   437  GU8437     -0.3744
    150  C6        54.9510   -6.8270   31.6390 C.3   436  GU5436      0.1076
    151  C9        50.4310   -5.7010   21.8130 C.3   438  GU9438      0.0366
    152  O38       54.3270   -3.4510   -7.5470 O.2   445  GU1445     -0.2480
    153  O1        56.9160   -2.4330  -12.6950 O.3   445  GU1445     -0.3400
    154  O6        58.3640   -1.6250   13.4230 O.3   440  GU9440     -0.3803
    155  O1        56.5940   -1.4360   -7.2320 O.3   444  GU5444     -0.3396
    156  O23       40.2730   -1.1540   38.6870 O.2   433  GU4433     -0.1181
    157  O21       44.5150   -1.7490   35.6030 O.2   434  GU6434     -0.1181
    158  C5        54.1120   -5.8090   26.8120 C.3   437  GU8437      0.1136
    159  C4        55.9720   -4.2520    9.1760 C.3   441  GU8441      0.1187
    160  O14       48.8080   -6.8720   39.6990 O.2   434  GU6434     -0.1181
    161  C4        56.4850   -3.8460   13.6880 C.3   440  GU9440      0.1187
    162  C9        56.7140   -4.4210    0.6090 C.3   443  GU8443      0.0366
    163  C6        54.2030   -5.5910    3.3140 C.3   442  GU9442      0.0761
    164  O18       52.3880   -2.2610  -13.0650 O.2   446  GU6446     -0.1181
    165  C2        54.9300   -2.0610   16.4760 C.3   439  GU8439      0.1374
    166  O24       40.1250   -4.1340   39.8890 O.2   433  GU4433     -0.1181
    167  C5        54.2320   -1.8560   -0.2200 C.3   443  GU8443      0.1136
    168  C3        51.8460   -4.7570   35.2380 C.3   435  GU0435      0.1514
    169  C2        44.9590   -4.7310   41.8340 C.3   433  GU4433      0.1711
    170  O51       53.1570   -3.2310  -21.9090 O.3   448  GU3448     -0.2311
    171  C3        53.9760   -8.0450   25.7180 C.3   437  GU8437      0.1177
    172  S3        52.7700   -2.8880   36.4790 S.O2  435  GU0435      0.2079
    173  C4        55.1650   -3.2580   18.6560 C.3   439  GU8439      0.1187
    174  O1        46.2840   -4.7140   39.8040 O.3   433  GU4433     -0.3400
    175  C3        56.2000   -5.2940   13.3090 C.3   440  GU9440      0.1177
    176  C6        54.4920   -5.0260   28.0600 C.3   437  GU8437      0.0761
    177  C8        51.9200   -2.2230    6.6990 C.3   442  GU9442      0.0370
    178  C6        52.6120   -0.3480   -6.1590 C.3   444  GU5444      0.1076
    179  O37       53.5320   -2.3640   -9.1960 O.3   445  GU1445     -0.4788
    180  C4        58.0920   -3.9450  -17.5180 C.3   447  GU2447      0.1269
    181  C8        50.5360   -9.5910   31.8240 C.3   436  GU5436      0.0370
    182  O6        45.3170   -3.8780   36.3580 O.3   434  GU6434     -0.2131
    183  O5        54.4320   -2.0640   -1.6290 O.3   443  GU8443     -0.3405
    184  C2        56.7650   -0.0180   -5.2460 C.3   444  GU5444      0.1374
    185  C2        52.0890   -4.8400   33.7260 C.3   435  GU0435      0.1710
    186  O27       53.1010   -3.8700   37.5640 O.2   435  GU0435     -0.1181
    187  O3        56.0940   -6.1660   14.4490 O.3   440  GU9440     -0.3744
    188  O29       45.9350   -6.8990   33.9270 O.3   435  GU0435     -0.2311
    189  C6        42.5510   -2.7800   38.9780 C.3   433  GU4433      0.1077
    190  C7        54.3500   -0.6690   14.6610 C.3   439  GU8439      0.0371
    191  C3        51.7950   -1.8560   -0.6060 C.3   443  GU8443      0.1177
    192  C7        55.6360   -8.0980   22.4300 C.3   437  GU8437      0.0371
    193  O1        56.8800   -3.9930  -16.7500 O.3   446  GU6446     -0.3395
    194  O18       50.4990   -1.5540   40.5790 O.3   434  GU6434     -0.2311
    195  O2        51.4130  -10.0890   28.7260 O.3   436  GU5436     -0.3721
    196  C5        43.5570   -3.8120   39.4940 C.3   433  GU4433      0.1183
    197  C4        54.4640   -0.6630   -4.4950 C.3   444  GU5444      0.1188
    198  O24       53.3130   -3.6870   31.1240 O.3   435  GU0435     -0.2311
    199  O2        45.9330   -5.5520   42.4860 O.3   433  GU4433     -0.2046
    200  C5        53.9250   -7.1650   30.5560 C.3   436  GU5436      0.1160
    201  S2        57.5530    3.6170  -21.7500 S.O2  448  GU3448      0.2080
    202  O6        48.2030   -7.0770   34.6600 O.3   435  GU0435     -0.2131
    203  C5        53.6500   -4.1770    3.2280 C.3   442  GU9442      0.1136
    204  C1        55.7950   -3.1460   15.8500 C.3   439  GU8439      0.1887
    205  O1        50.3670   -5.5170   37.0260 O.3   434  GU6434     -0.3400
    206  O20       44.5020   -3.7080   34.1280 O.2   434  GU6434     -0.1181
    207  C2        51.5880   -2.2790    3.7590 C.3   442  GU9442      0.1374
    208  S4        40.6160   -5.5400   40.0710 S.O2  433  GU4433      0.2079
    209  S6        47.0560   -7.8360   34.2640 S.O2  435  GU0435      0.2076
    210  O32       50.8630    1.6280   -7.5340 O.2   444  GU5444     -0.1181
    211  S2        54.0790   -6.1560  -16.6370 S.O2  446  GU6446      0.2080
    212  O3        48.7140   -3.1380   40.8360 O.3   434  GU6434     -0.2069
    213  O33       55.4560   -7.0280   34.6410 O.3   436  GU5436     -0.2311
    214  C2        58.5490   -4.3060  -19.9710 C.3   447  GU2447      0.1375
    215  S3        49.0140   -1.7620   40.5580 S.O2  434  GU6434      0.2079
    216  O2        53.3930   -4.3270   33.4340 O.3   435  GU0435     -0.2046
    217  O5        57.6000   -3.5740   11.5220 O.3   440  GU9440     -0.3405
    218  O6        53.3410   -6.4120    4.1150 O.3   442  GU9442     -0.3803
    219  C4        56.5460   -1.4240   -8.6690 C.3   445  GU1445      0.1269
    220  C1        54.6160   -6.0450   24.5110 C.3   437  GU8437      0.1887
    221  C5        53.8940   -4.4120   21.8500 C.3   438  GU9438      0.1136
    222  C5        47.2890   -3.9290   37.7800 C.3   434  GU6434      0.1161
    223  O16       54.4410   -1.0920  -13.7140 O.3   446  GU6446     -0.2311
    224  C5        58.2870   -2.5280  -18.0370 C.3   447  GU2447      0.1863
    225  O6        55.2930   -2.5110  -22.7130 O.3   448  GU3448     -0.2131
    226  O3        54.3750   -3.4910  -13.5040 O.3   446  GU6446     -0.2069
    227  O1        53.1320   -7.6970   27.9320 O.3   436  GU5436     -0.3401
    228  O6        52.4010    1.0200   -5.7990 O.3   444  GU5444     -0.2131
    229  O29       44.7490   -8.2160   42.1800 O.2   433  GU4433     -0.1181
    230  O6        51.6540   -5.1940   21.2730 O.3   438  GU9438     -0.3803
    231  O5        54.5550   -3.1850    7.5070 O.3   441  GU8441     -0.3405
    232  C5        57.4090   -1.3840  -23.1720 C.3   448  GU3448      0.1160
    233  O49       56.8640   -1.0880  -16.7540 O.2   447  GU2447     -0.2480
    234  C8        58.2640    0.8960  -25.8010 C.3   448  GU3448      0.0395
    235  O5        55.8200   -2.6770  -10.6270 O.3   445  GU1445     -0.3315
    236  C2        52.0740   -2.1390   -2.0770 C.3   443  GU8443      0.1374
    237  O1        54.8550   -3.4760    5.1970 O.3   441  GU8441     -0.3401
    238  O25       52.3260   -1.6050   37.1150 O.3   435  GU0435     -0.2311
    239  O19       59.5180   -6.5650  -10.4110 O.3   446  GU6446     -0.2311
    240  O3        58.6350   -6.1670  -18.3910 O.3   447  GU2447     -0.3744
    241  C1        49.6240   -4.4020   37.5410 C.3   434  GU6434      0.1912
    242  C9        53.8920   -7.7280    4.2070 C.3   442  GU9442      0.0366
    243  O21       42.0160    0.3790   39.4740 O.3   433  GU4433     -0.2311
    244  O26       39.8250   -6.4540   39.1830 O.3   433  GU4433     -0.2311
    245  O19       42.9660   -3.5900   36.0440 O.3   434  GU6434     -0.2311
    246  O5        44.6110   -3.0620   40.1210 O.3   433  GU4433     -0.3402
    247  C7        51.6760    0.0370    3.0900 C.3   442  GU9442      0.0371
    248  O33       51.2560    3.1050   -5.6230 O.3   444  GU5444     -0.2311
    249  C1        52.0200   -6.2900   33.2350 C.3   435  GU0435      0.1912
    250  C3        55.5660   -3.6720  -14.2770 C.3   446  GU6446      0.1514
    251  C2        57.6780    1.2980  -22.1780 C.3   448  GU3448      0.1686
    252  C1        54.7830   -2.4030   20.8730 C.3   438  GU9438      0.1887
    253  O1        53.6940   -1.6520   -3.8160 O.3   443  GU8443     -0.3401
    254  O5        56.6550   -0.2840  -23.7090 O.3   448  GU3448     -0.3404
    255  S6        60.0340   -5.4670  -11.2920 S.O2  446  GU6446      0.2076
    256  C6        59.2450   -4.1310  -13.2500 C.3   446  GU6446      0.1076
    257  C6        54.4960   -2.8470   -8.6090 C.2   445  GU1445      0.3367
    258  O5        50.7920   -6.9160   33.6390 O.3   435  GU0435     -0.3403
    259  C7        57.2110   -4.9450    4.5500 C.3   441  GU8441      0.0371
    260  C5        54.0810   -0.7380   -5.9760 C.3   444  GU5444      0.1160
    261  O48       58.9240   -1.1080  -16.2170 O.3   447  GU2447     -0.4788
    262  C3        58.5160    0.1700  -21.5700 C.3   448  GU3448      0.1201
    263  O15       49.6950   -5.9680   41.7970 O.2   434  GU6434     -0.1181
    264  S2        53.3860   -3.2070   32.5430 S.O2  435  GU0435      0.2080
    265  C6        49.3060   -7.6760   35.3460 C.3   435  GU0435      0.1076
    266  C4        54.7680   -4.2210   23.0940 C.3   438  GU9438      0.1187
    267  O27       42.7490   -8.2050   40.7750 O.3   433  GU4433     -0.2311
    268  O6        54.5830   -6.1580   18.4560 O.3   439  GU8439     -0.3803
    269  C1        57.7640   -3.0440  -20.3080 C.3   447  GU2447      0.1893
    270  C5        56.6410   -3.0030   12.4290 C.3   440  GU9440      0.1136
    271  C6        55.3980   -2.4860    0.5260 C.3   443  GU8443      0.0761
    272  O2        54.3520   -4.9180  -15.9720 O.3   446  GU6446     -0.2046
    273  C2        57.2410   -5.8120   12.3260 C.3   440  GU9440      0.1374
    274  C3        43.8720   -5.6190   41.2200 C.3   433  GU4433      0.1537
    275  O28       42.5360   -8.4470   43.1930 O.2   433  GU4433     -0.1181
    276  O4        42.0010   -5.6360   39.7160 O.3   433  GU4433     -0.2070
    277  C8        55.4300   -9.8800   26.2450 C.3   437  GU8437      0.0370
    278  O3        54.6460   -0.8700   18.6420 O.3   439  GU8439     -0.3744
    279  H         58.4800   -2.1910   -9.0090 H     445  GU1445      0.0651
    280  H         50.9180   -2.9330    1.8310 H     442  GU9442      0.0938
    281  H         46.7160   -3.4510   39.6620 H     434  GU6434      0.0651
    282  H         59.2950   -5.6720  -22.8680 H     447  GU2447      0.0524
    283  H         60.3730   -4.9190  -21.7170 H     447  GU2447      0.0524
    284  H         59.1180   -3.9760  -22.4850 H     447  GU2447      0.0524
    285  H         59.9920    0.5820   -5.4250 H     444  GU5444      0.0524
    286  H         58.7190    1.6540   -4.8900 H     444  GU5444      0.0524
    287  H         58.7360    1.0720   -6.5370 H     444  GU5444      0.0524
    288  H         57.2910   -0.4080  -11.0990 H     445  GU1445      0.0674
    289  H         52.9320   -4.1860    5.2490 H     442  GU9442      0.0651
    290  H         55.1450   -7.5640   27.4460 H     437  GU8437      0.0651
    291  H         57.3880   -4.4450   29.4820 H     437  GU8437      0.0524
    292  H         55.7860   -4.1740   30.1250 H     437  GU8437      0.0524
    293  H         56.3130   -3.3110   28.7000 H     437  GU8437      0.0524
    294  H         53.0220   -2.5440    9.6160 H     441  GU8441      0.0586
    295  H         54.2070   -3.0640   10.7940 H     441  GU8441      0.0586
    296  H         56.8410    0.5740   -7.2890 H     444  GU5444      0.0938
    297  H         56.9530   -5.1110  -18.8530 H     447  GU2447      0.0651
    298  H         46.3510   -3.2200   41.1890 H     433  GU4433      0.0938
    299  H         53.9920   -9.5280   28.2270 H     436  GU5436      0.0938
    300  H         52.7730   -8.2150   32.0340 H     436  GU5436      0.0651
    301  H         50.3630   -3.8560   39.5010 H     434  GU6434      0.0700
    302  H         53.0350    0.4040   18.6080 H     439  GU8439      0.0524
    303  H         52.7560   -1.1660   17.8950 H     439  GU8439      0.0524
    304  H         53.7140    0.0220   17.0440 H     439  GU8439      0.0524
    305  H         50.0650   -1.9130   -4.6630 H     443  GU8443      0.0524
    306  H         50.6200   -3.3530   -3.8430 H     443  GU8443      0.0524
    307  H         51.7680   -2.3050   -4.6430 H     443  GU8443      0.0524
    308  H         57.9430   -5.2670   10.3900 H     440  GU9440      0.0938
    309  H         56.8360   -1.0720  -21.1450 H     448  GU3448      0.0651
    310  H         47.6250   -3.3650   44.1540 H     433  GU4433      0.2469
    311  H         55.7310   -6.0450    8.1260 H     441  GU8441      0.0650
    312  H         56.7920   -6.0340  -16.4560 H     446  GU6446      0.0938
    313  H         57.8290   -8.8790   11.3090 H     440  GU9440      0.0524
    314  H         58.7850   -7.8910   12.3870 H     440  GU9440      0.0524
    315  H         58.5370   -7.3900   10.7320 H     440  GU9440      0.0524
    316  H         56.1800   -1.9590   -4.6480 H     444  GU5444      0.0650
    317  H         56.3610   -1.1670   13.4720 H     440  GU9440      0.0586
    318  H         57.1270   -0.9980   11.9080 H     440  GU9440      0.0586
    319  H         57.1400   -6.9240   16.0460 H     440  GU9440      0.0524
    320  H         57.5630   -5.2920   15.5880 H     440  GU9440      0.0524
    321  H         58.0870   -6.6390   14.6060 H     440  GU9440      0.0524
    322  H         48.9960   -3.6640   -0.4940 H     443  GU8443      0.0524
    323  H         50.6200   -4.2570   -0.7500 H     443  GU8443      0.0524
    324  H         49.8840   -3.1920   -1.9230 H     443  GU8443      0.0524
    325  H         56.5100   -3.5310   -8.8920 H     445  GU1445      0.0742
    326  H         51.3940   -7.3880   29.5330 H     436  GU5436      0.0650
    327  H         53.3280   -0.4200   -2.2320 H     443  GU8443      0.0938
    328  H         60.4420   -7.0240  -17.9180 H     447  GU2447      0.0524
    329  H         60.1970   -5.4110  -17.2910 H     447  GU2447      0.0524
    330  H         60.5300   -5.6470  -18.9900 H     447  GU2447      0.0524
    331  H         55.9110   -7.7400   24.7990 H     437  GU8437      0.0674
    332  H         57.6700   -3.4150  -11.0240 H     445  GU1445      0.0938
    333  H         52.1750   -4.4230   23.0990 H     438  GU9438      0.0586
    334  H         52.8280   -6.0170   22.7260 H     438  GU9438      0.0586
    335  H         51.2670   -7.7460   39.5220 H     434  GU6434      0.2469
    336  H         53.6240   -7.9560   18.2190 H     439  GU8439      0.0524
    337  H         55.0990   -8.0170   19.1540 H     439  GU8439      0.0524
    338  H         55.1720   -7.8270   17.4180 H     439  GU8439      0.0524
    339  H         52.8810   -3.4980    0.1960 H     443  GU8443      0.0651
    340  H         56.5930   -6.3310   18.0690 H     439  GU8439      0.0586
    341  H         56.1870   -5.5880   19.6020 H     439  GU8439      0.0586
    342  H         57.9510    3.4630  -19.7550 H     448  GU3448      0.2469
    343  H         50.1550  -10.0110   27.1060 H     436  GU5436      0.0524
    344  H         51.5590   -8.9750   27.0080 H     436  GU5436      0.0524
    345  H         50.2310   -8.5490   28.0610 H     436  GU5436      0.0524
    346  H         57.0360   -3.9470   17.9950 H     439  GU8439      0.0647
    347  H         59.7230   -5.3720    8.4490 H     441  GU8441      0.0524
    348  H         58.6570   -4.0890    8.9720 H     441  GU8441      0.0524
    349  H         58.8240   -4.4470    7.2700 H     441  GU8441      0.0524
    350  H         53.5850   -1.5780    3.9490 H     442  GU9442      0.0650
    351  H         51.4240   -7.3960   35.5580 H     435  GU0435      0.0648
    352  H         53.9390   -4.6320    8.8640 H     441  GU8441      0.0647
    353  H         54.6770   -7.0410  -18.3750 H     446  GU6446      0.2469
    354  H         54.9560   -1.5040   22.8040 H     438  GU9438      0.0674
    355  H         59.7090   -0.3250   14.2660 H     440  GU9440      0.0524
    356  H         58.0280    0.0990   14.4840 H     440  GU9440      0.0524
    357  H         58.7900    0.3210   12.9280 H     440  GU9440      0.0524
    358  H         42.2860   -4.1850   41.1720 H     433  GU4433      0.0676
    359  H         58.1780   -3.1620  -14.8420 H     446  GU6446      0.0648
    360  H         55.3520   -5.8060  -14.4360 H     446  GU6446      0.0700
    361  H         56.4310   -2.8460  -24.3810 H     448  GU3448      0.0611
    362  H         57.0890   -3.4670  -22.8730 H     448  GU3448      0.0611
    363  H         58.8180    1.8480   -8.7810 H     445  GU1445      0.0524
    364  H         57.1940    1.2050   -8.8510 H     445  GU1445      0.0524
    365  H         58.2190    1.1480  -10.2660 H     445  GU1445      0.0524
    366  H         48.6330   -4.1490   40.7960 H     434  GU6434      0.0677
    367  H         57.0230   -3.7510    6.6450 H     441  GU8441      0.0674
    368  H         60.4040    0.0120  -12.3720 H     445  GU1445      0.0524
    369  H         59.4260    0.7250  -11.1120 H     445  GU1445      0.0524
    370  H         58.7060    0.3140  -12.6500 H     445  GU1445      0.0524
    371  H         52.6260  -10.0350   30.2520 H     436  GU5436      0.0674
    372  H         54.2620   -4.9550    6.5040 H     441  GU8441      0.0938
    373  H         58.4960   -1.0500   20.9050 H     438  GU9438      0.0524
    374  H         57.3050   -2.0490   20.1070 H     438  GU9438      0.0524
    375  H         58.1070   -2.6280   21.5470 H     438  GU9438      0.0524
    376  H         57.7240   -1.2960   -1.5900 H     444  GU5444      0.0524
    377  H         58.3080   -1.1410   -3.2300 H     444  GU5444      0.0524
    378  H         57.3310   -2.5170   -2.7760 H     444  GU5444      0.0524
    379  H         56.7180    1.7250  -24.0500 H     448  GU3448      0.0938
    380  H         60.0600    0.0680  -18.6710 H     448  GU3448      0.0524
    381  H         60.7630    0.1330  -20.2700 H     448  GU3448      0.0524
    382  H         59.7880   -1.2380  -19.7990 H     448  GU3448      0.0524
    383  H         56.7360   -2.2960   25.8290 H     438  GU9438      0.0524
    384  H         55.2290   -2.9910   25.2840 H     438  GU9438      0.0524
    385  H         55.7830   -1.4740   24.6180 H     438  GU9438      0.0524
    386  H         56.6600   -4.4720  -12.6120 H     446  GU6446      0.0651
    387  H         49.7270   -4.9710   35.1610 H     435  GU0435      0.0651
    388  H         46.7020   -2.3770   36.4440 H     434  GU6434      0.0611
    389  H         45.6760   -2.5500   37.8620 H     434  GU6434      0.0611
    390  H         54.6660    0.4800   10.1620 H     441  GU8441      0.0524
    391  H         54.0780   -0.6630   11.3460 H     441  GU8441      0.0524
    392  H         53.1320   -0.3200    9.9180 H     441  GU8441      0.0524
    393  H         56.3610   -1.6390   17.9440 H     439  GU8439      0.0650
    394  H         56.6170   -3.9010   22.0830 H     438  GU9438      0.0650
    395  H         55.8720   -6.5350   31.1800 H     436  GU5436      0.0611
    396  H         54.5830   -6.0230   32.2410 H     436  GU5436      0.0611
    397  H         49.7150   -5.8170   21.0260 H     438  GU9438      0.0524
    398  H         50.0520   -5.0160   22.5420 H     438  GU9438      0.0524
    399  H         50.6110   -6.6500   22.2740 H     438  GU9438      0.0524
    400  H         53.0970   -5.5850   26.5590 H     437  GU8437      0.0647
    401  H         56.6550   -3.4300    9.2260 H     441  GU8441      0.0651
    402  H         57.3890   -3.8220   14.2600 H     440  GU9440      0.0651
    403  H         56.7360   -5.4720    0.4090 H     443  GU8443      0.0524
    404  H         56.8970   -4.2520    1.6500 H     443  GU8443      0.0524
    405  H         57.4690   -3.9320    0.0300 H     443  GU8443      0.0524
    406  H         55.1770   -5.5630    3.7570 H     442  GU9442      0.0586
    407  H         54.2620   -6.0040    2.3290 H     442  GU9442      0.0586
    408  H         53.8950   -2.3170   16.3820 H     439  GU8439      0.0674
    409  H         54.1920   -0.8040   -0.0270 H     443  GU8443      0.0647
    410  H         52.6710   -5.2120   35.7460 H     435  GU0435      0.0677
    411  H         44.5140   -4.0770   42.5540 H     433  GU4433      0.0700
    412  H         52.4690   -3.9070  -22.0110 H     448  GU3448      0.2469
    413  H         52.9730   -7.8290   25.4150 H     437  GU8437      0.0650
    414  H         54.1300   -3.5310   18.6620 H     439  GU8439      0.0651
    415  H         55.2410   -5.2990   12.8340 H     440  GU9440      0.0650
    416  H         54.3690   -3.9800   27.8730 H     437  GU8437      0.0586
    417  H         53.8600   -5.3250   28.8700 H     437  GU8437      0.0586
    418  H         51.8590   -1.6720    7.6140 H     442  GU9442      0.0524
    419  H         52.3290   -3.1930    6.8930 H     442  GU9442      0.0524
    420  H         50.9410   -2.3260    6.2780 H     442  GU9442      0.0524
    421  H         52.0040   -0.9720   -5.5380 H     444  GU5444      0.0611
    422  H         52.3490   -0.4760   -7.1880 H     444  GU5444      0.0611
    423  H         53.6570   -1.9050  -10.0030 H     445  GU1445      0.2951
    424  H         58.9240   -4.2240  -16.9060 H     447  GU2447      0.0656
    425  H         49.5750   -9.8260   32.2310 H     436  GU5436      0.0524
    426  H         51.1900   -9.2790   32.6110 H     436  GU5436      0.0524
    427  H         50.9420  -10.4570   31.3450 H     436  GU5436      0.0524
    428  H         56.6000    0.9900   -4.9280 H     444  GU5444      0.0674
    429  H         51.3310   -4.2690   33.2320 H     435  GU0435      0.0700
    430  H         45.1560   -7.4100   33.6580 H     435  GU0435      0.2469
    431  H         43.0210   -2.1740   38.2320 H     433  GU4433      0.0611
    432  H         41.7110   -3.2960   38.5610 H     433  GU4433      0.0611
    433  H         54.5540    0.2690   14.1880 H     439  GU8439      0.0524
    434  H         53.3220   -0.7050   14.9540 H     439  GU8439      0.0524
    435  H         54.5530   -1.4660   13.9760 H     439  GU8439      0.0524
    436  H         51.7880   -0.7930   -0.4840 H     443  GU8443      0.0650
    437  H         55.3670   -8.5950   21.5210 H     437  GU8437      0.0524
    438  H         56.5100   -8.5570   22.8430 H     437  GU8437      0.0524
    439  H         55.8380   -7.0670   22.2260 H     437  GU8437      0.0524
    440  H         50.6980   -0.6230   40.3910 H     434  GU6434      0.2469
    441  H         43.9650   -4.4230   38.7160 H     433  GU4433      0.0648
    442  H         54.2700    0.3050   -4.0830 H     444  GU5444      0.0651
    443  H         53.3090   -2.9240   30.5240 H     435  GU0435      0.2469
    444  H         53.7410   -6.3520   29.8850 H     436  GU5436      0.0648
    445  H         54.3180   -3.5620    2.6630 H     442  GU9442      0.0647
    446  H         56.8250   -2.8640   15.9100 H     439  GU8439      0.0938
    447  H         50.9280   -2.9270    4.2960 H     442  GU9442      0.0674
    448  H         56.0510   -6.9930   35.4060 H     436  GU5436      0.2469
    449  H         59.5770   -4.0370  -19.8410 H     447  GU2447      0.0674
    450  H         55.9700   -0.5640   -8.9410 H     445  GU1445      0.0656
    451  H         53.5720   -5.8960   24.3330 H     437  GU8437      0.0938
    452  H         54.3910   -5.0200   21.1230 H     438  GU9438      0.0647
    453  H         46.3820   -4.3560   38.1540 H     434  GU6434      0.0648
    454  H         55.2420   -1.1420  -14.2580 H     446  GU6446      0.2469
    455  H         59.2980   -2.4040  -18.3640 H     447  GU2447      0.0742
    456  H         58.3370   -1.4900  -23.6950 H     448  GU3448      0.0648
    457  H         59.1740    0.8780  -26.3640 H     448  GU3448      0.0525
    458  H         57.6940    1.7600  -26.0730 H     448  GU3448      0.0525
    459  H         57.6970    0.0140  -26.0120 H     448  GU3448      0.0525
    460  H         52.1290   -3.1910   -2.2650 H     443  GU8443      0.0674
    461  H         52.1080   -0.9600   36.4240 H     435  GU0435      0.2469
    462  H         60.1530   -6.7320   -9.6970 H     446  GU6446      0.2469
    463  H         50.0590   -3.4670   37.2570 H     434  GU6434      0.0938
    464  H         53.2510   -8.3420    4.8040 H     442  GU9442      0.0524
    465  H         54.8610   -7.6780    4.6590 H     442  GU9442      0.0524
    466  H         53.9770   -8.1480    3.2270 H     442  GU9442      0.0524
    467  H         42.6220    0.5820   40.2040 H     433  GU4433      0.2469
    468  H         38.8850   -6.3970   39.4150 H     433  GU4433      0.2469
    469  H         42.8460   -4.5520   36.0060 H     434  GU6434      0.2469
    470  H         51.1030    0.9410    3.0850 H     442  GU9442      0.0524
    471  H         51.9190   -0.2370    2.0850 H     442  GU9442      0.0524
    472  H         52.5770    0.1890    3.6460 H     442  GU9442      0.0524
    473  H         51.4460    3.1370   -4.6720 H     444  GU5444      0.2469
    474  H         52.8420   -6.8300   33.6580 H     435  GU0435      0.0938
    475  H         55.6690   -2.8530  -14.9580 H     446  GU6446      0.0677
    476  H         56.7700    1.3960  -21.6210 H     448  GU3448      0.0699
    477  H         54.4640   -1.5180   20.3630 H     438  GU9438      0.0938
    478  H         60.1180   -4.2940  -13.8460 H     446  GU6446      0.0611
    479  H         59.3350   -3.2330  -12.6750 H     446  GU6446      0.0611
    480  H         57.4780   -5.6960    3.8360 H     441  GU8441      0.0524
    481  H         58.0720   -4.3540    4.7850 H     441  GU8441      0.0524
    482  H         56.4490   -4.3170    4.1390 H     441  GU8441      0.0524
    483  H         54.2370   -1.7440   -6.3060 H     444  GU5444      0.0648
    484  H         59.7950   -1.4270  -16.3490 H     447  GU2447      0.2951
    485  H         59.4570    0.0670  -22.0700 H     448  GU3448      0.0651
    486  H         49.1130   -7.6610   36.3980 H     435  GU0435      0.0611
    487  H         49.4170   -8.6820   34.9990 H     435  GU0435      0.0611
    488  H         54.1520   -3.7840   23.8520 H     438  GU9438      0.0651
    489  H         41.8210   -7.9270   40.7170 H     433  GU4433      0.2469
    490  H         56.8570   -3.3360  -20.7940 H     447  GU2447      0.0938
    491  H         55.6900   -2.9780   11.9390 H     440  GU9440      0.0647
    492  H         56.3140   -2.0390    0.1990 H     443  GU8443      0.0586
    493  H         55.2780   -2.3250    1.5770 H     443  GU8443      0.0586
    494  H         58.2190   -5.8090   12.7600 H     440  GU9440      0.0674
    495  H         44.3260   -6.2980   40.5290 H     433  GU4433      0.0677
    496  H         55.4560  -10.9440   26.3510 H     437  GU8437      0.0524
    497  H         55.7050   -9.4220   27.1720 H     437  GU8437      0.0524
    498  H         56.1180   -9.5810   25.4820 H     437  GU8437      0.0524
@<TRIPOS>BOND
     1     1     7    1
     2     1    48    1
     3     1   219    1
     4     1   279    1
     5     2   125    1
     6     2   207    1
     7     2    84    1
     8     2   280    1
     9     3   174    1
    10     3   119    1
    11     3   222    1
    12     3   281    1
    13     4    68    1
    14     4   282    1
    15     4   283    1
    16     4   284    1
    17     5   112    1
    18     5   285    1
    19     5   286    1
    20     5   287    1
    21     6    75    1
    22     6   192    1
    23     7    78    1
    24     7    15    1
    25     7   288    1
    26     8   209    2
    27     9   162    1
    28     9   271    1
    29    10   237    1
    30    10   203    1
    31    10    95    1
    32    10   289    1
    33    11    49    2
    34    12   204    1
    35    12   161    1
    36    13   251    1
    37    13   201    1
    38    14    97    2
    39    15   121    1
    40    16    49    2
    41    17   227    1
    42    17   158    1
    43    17   171    1
    44    17   290    1
    45    18   224    1
    46    18   233    2
    47    18   261    1
    48    19    82    1
    49    19   291    1
    50    19   292    1
    51    19   293    1
    52    20    42    1
    53    20   103    1
    54    20   294    1
    55    20   295    1
    56    21   150    1
    57    21    49    1
    58    22   269    1
    59    22   224    1
    60    23   208    2
    61    24   155    1
    62    24   184    1
    63    24    85    1
    64    24   296    1
    65    25   214    1
    66    25   240    1
    67    25   180    1
    68    25   297    1
    69    26   174    1
    70    26   246    1
    71    26   169    1
    72    26   298    1
    73    27   227    1
    74    27   123    1
    75    27   140    1
    76    27   299    1
    77    28    98    1
    78    28    69    1
    79    28   200    1
    80    28   300    1
    81    29    95    1
    82    29   177    1
    83    30   241    1
    84    30   148    1
    85    30   119    1
    86    30   301    1
    87    31   252    1
    88    31   173    1
    89    32    71    2
    90    33   211    2
    91    34    97    2
    92    35   278    1
    93    35   302    1
    94    35   303    1
    95    35   304    1
    96    36   201    2
    97    37    91    1
    98    37   275    2
    99    37   229    2
   100    37   267    1
   101    38   255    2
   102    39   172    2
   103    40   129    1
   104    40   305    1
   105    40   306    1
   106    40   307    1
   107    41    69    1
   108    41   181    1
   109    42   144    1
   110    43   264    2
   111    44   217    1
   112    44   273    1
   113    44    64    1
   114    44   308    1
   115    45    56    1
   116    45   232    1
   117    45   262    1
   118    45   309    1
   119    46   201    2
   120    47    97    1
   121    47   310    1
   122    48   116    1
   123    49   213    1
   124    50   120    1
   125    50   118    1
   126    50   159    1
   127    50   311    1
   128    51   108    2
   129    52   211    2
   130    53   130    1
   131    53   234    1
   132    54   193    1
   133    54   110    1
   134    54    89    1
   135    54   312    1
   136    55   115    1
   137    55   313    1
   138    55   314    1
   139    55   315    1
   140    56   269    1
   141    57   241    1
   142    57   222    1
   143    58   184    1
   144    58    73    1
   145    58   197    1
   146    58   316    1
   147    59   191    1
   148    59    65    1
   149    60   255    2
   150    61   270    1
   151    61   154    1
   152    61   317    1
   153    61   318    1
   154    62   148    1
   155    62   160    2
   156    62   263    2
   157    62    83    1
   158    63   187    1
   159    63   319    1
   160    63   320    1
   161    63   321    1
   162    64   159    1
   163    65   322    1
   164    65   323    1
   165    65   324    1
   166    66   235    1
   167    66   257    1
   168    66   219    1
   169    66   325    1
   170    67   256    1
   171    67   255    1
   172    68   214    1
   173    69   123    1
   174    69   326    1
   175    70   147    1
   176    70   133    1
   177    71   226    1
   178    71   164    2
   179    71   223    1
   180    72   183    1
   181    72   253    1
   182    72   236    1
   183    72   327    1
   184    73   127    1
   185    74   240    1
   186    74   328    1
   187    74   329    1
   188    74   330    1
   189    75   220    1
   190    75   171    1
   191    75   331    1
   192    76   165    1
   193    76   190    1
   194    77   264    2
   195    78   153    1
   196    78   235    1
   197    78   332    1
   198    79   182    1
   199    79   206    2
   200    79   157    2
   201    79   245    1
   202    80   158    1
   203    80   220    1
   204    81   221    1
   205    81   230    1
   206    81   333    1
   207    81   334    1
   208    82   176    1
   209    83   335    1
   210    84    87    1
   211    85   260    1
   212    86   268    1
   213    86   336    1
   214    86   337    1
   215    86   338    1
   216    87   167    1
   217    87   191    1
   218    87   339    1
   219    88   268    1
   220    88    93    1
   221    88   340    1
   222    88   341    1
   223    89   109    1
   224    90   201    1
   225    90   342    1
   226    91   274    1
   227    92   195    1
   228    92   343    1
   229    92   344    1
   230    92   345    1
   231    93   142    1
   232    93   173    1
   233    93   346    1
   234    94   118    1
   235    94   347    1
   236    94   348    1
   237    94   349    1
   238    95   207    1
   239    95   350    1
   240    96   258    1
   241    96   265    1
   242    96   137    1
   243    96   351    1
   244    97   199    1
   245    98   249    1
   246    99   262    1
   247    99   132    1
   248   100   135    2
   249   101   215    2
   250   102   221    1
   251   102   252    1
   252   103   231    1
   253   103   159    1
   254   103   352    1
   255   104   211    1
   256   104   353    1
   257   105   147    1
   258   105   141    1
   259   105   252    1
   260   105   354    1
   261   106   154    1
   262   106   355    1
   263   106   356    1
   264   106   357    1
   265   107   196    1
   266   107   276    1
   267   107   274    1
   268   107   358    1
   269   108   139    1
   270   108   156    2
   271   108   243    1
   272   109   256    1
   273   109   136    1
   274   109   359    1
   275   110   272    1
   276   110   250    1
   277   110   360    1
   278   111   220    1
   279   111   266    1
   280   112   184    1
   281   113   225    1
   282   113   232    1
   283   113   361    1
   284   113   362    1
   285   114   207    1
   286   114   247    1
   287   115   273    1
   288   116   363    1
   289   116   364    1
   290   116   365    1
   291   117   209    2
   292   119   212    1
   293   119   366    1
   294   120   124    1
   295   120   131    1
   296   120   367    1
   297   121   368    1
   298   121   369    1
   299   121   370    1
   300   122   143    2
   301   123   195    1
   302   123   371    1
   303   124   231    1
   304   124   237    1
   305   124   372    1
   306   125   203    1
   307   126   141    1
   308   126   373    1
   309   126   374    1
   310   126   375    1
   311   127   376    1
   312   127   377    1
   313   127   378    1
   314   128   143    2
   315   129   236    1
   316   130   254    1
   317   130   251    1
   318   130   379    1
   319   131   259    1
   320   132   380    1
   321   132   381    1
   322   132   382    1
   323   133   383    1
   324   133   384    1
   325   133   385    1
   326   134   168    1
   327   134   172    1
   328   135   228    1
   329   135   210    2
   330   135   248    1
   331   136   153    1
   332   136   250    1
   333   136   386    1
   334   137   205    1
   335   137   168    1
   336   137   387    1
   337   138   222    1
   338   138   182    1
   339   138   388    1
   340   138   389    1
   341   139   189    1
   342   140   200    1
   343   142   204    1
   344   143   170    1
   345   143   225    1
   346   144   390    1
   347   144   391    1
   348   144   392    1
   349   145   165    1
   350   145   278    1
   351   145   173    1
   352   145   393    1
   353   146   215    2
   354   147   266    1
   355   147   394    1
   356   149   171    1
   357   149   277    1
   358   150   200    1
   359   150   395    1
   360   150   396    1
   361   151   230    1
   362   151   397    1
   363   151   398    1
   364   151   399    1
   365   152   257    2
   366   155   219    1
   367   158   176    1
   368   158   400    1
   369   159   401    1
   370   161   270    1
   371   161   175    1
   372   161   402    1
   373   162   403    1
   374   162   404    1
   375   162   405    1
   376   163   203    1
   377   163   218    1
   378   163   406    1
   379   163   407    1
   380   165   204    1
   381   165   408    1
   382   166   208    2
   383   167   271    1
   384   167   183    1
   385   167   409    1
   386   168   185    1
   387   168   410    1
   388   169   274    1
   389   169   199    1
   390   169   411    1
   391   170   412    1
   392   171   413    1
   393   172   186    2
   394   172   238    1
   395   173   414    1
   396   175   187    1
   397   175   273    1
   398   175   415    1
   399   176   416    1
   400   176   417    1
   401   177   418    1
   402   177   419    1
   403   177   420    1
   404   178   260    1
   405   178   228    1
   406   178   421    1
   407   178   422    1
   408   179   257    1
   409   179   423    1
   410   180   193    1
   411   180   224    1
   412   180   424    1
   413   181   425    1
   414   181   426    1
   415   181   427    1
   416   184   428    1
   417   185   249    1
   418   185   216    1
   419   185   429    1
   420   188   209    1
   421   188   430    1
   422   189   196    1
   423   189   431    1
   424   189   432    1
   425   190   433    1
   426   190   434    1
   427   190   435    1
   428   191   236    1
   429   191   436    1
   430   192   437    1
   431   192   438    1
   432   192   439    1
   433   194   215    1
   434   194   440    1
   435   196   246    1
   436   196   441    1
   437   197   253    1
   438   197   260    1
   439   197   442    1
   440   198   264    1
   441   198   443    1
   442   200   444    1
   443   202   265    1
   444   202   209    1
   445   203   445    1
   446   204   446    1
   447   205   241    1
   448   207   447    1
   449   208   276    1
   450   208   244    1
   451   211   272    1
   452   212   215    1
   453   213   448    1
   454   214   269    1
   455   214   449    1
   456   216   264    1
   457   217   270    1
   458   218   242    1
   459   219   450    1
   460   220   451    1
   461   221   266    1
   462   221   452    1
   463   222   453    1
   464   223   454    1
   465   224   455    1
   466   226   250    1
   467   232   254    1
   468   232   456    1
   469   234   457    1
   470   234   458    1
   471   234   459    1
   472   236   460    1
   473   238   461    1
   474   239   255    1
   475   239   462    1
   476   241   463    1
   477   242   464    1
   478   242   465    1
   479   242   466    1
   480   243   467    1
   481   244   468    1
   482   245   469    1
   483   247   470    1
   484   247   471    1
   485   247   472    1
   486   248   473    1
   487   249   258    1
   488   249   474    1
   489   250   475    1
   490   251   262    1
   491   251   476    1
   492   252   477    1
   493   256   478    1
   494   256   479    1
   495   259   480    1
   496   259   481    1
   497   259   482    1
   498   260   483    1
   499   261   484    1
   500   262   485    1
   501   265   486    1
   502   265   487    1
   503   266   488    1
   504   267   489    1
   505   269   490    1
   506   270   491    1
   507   271   492    1
   508   271   493    1
   509   273   494    1
   510   274   495    1
   511   277   496    1
   512   277   497    1
   513   277   498    1
