@<TRIPOS>MOLECULE
1U4L_LIGAND_1.pdb
 56 57 0 0 0
SMALL
GASTEIGER

@<TRIPOS>ATOM
      1  O15       16.4950    8.0160   32.2570 O.3   301  H1S301     -0.3656
      2  C19       17.7810   11.0650   37.3470 C.2   301  H1S301      0.2060
      3  C7        17.0810    8.8400   36.5810 C.3   301  H1S301      0.2340
      4  C10       17.8260    7.4650   32.2300 C.3   301  H1S301      0.1762
      5  O32       14.0380    7.6260   36.7050 O.2   301  H1S301     -0.1181
      6  C12       16.5330    8.5720   38.0150 C.3   301  H1S301      0.1808
      7  C4        17.5780    6.6810   34.5810 C.3   301  H1S301      0.1055
      8  O9        17.6250    5.5710   35.4850 O.3   301  H1S301     -0.3874
      9  C6        19.5970   10.0060   34.3920 C.3   301  H1S301      0.1076
     10  S16       21.9520   10.2980   34.8060 S.O2  301  H1S301      0.2076
     11  O23       21.7440   11.9390   34.9610 O.3   301  H1S301     -0.2311
     12  C8        17.9020    6.2340   33.1530 C.3   301  H1S301      0.1076
     13  C17       17.4990    9.2280   39.0570 C.3   301  H1S301      0.1116
     14  O18       15.2330    9.1990   38.1340 O.3   301  H1S301     -0.2032
     15  C27       18.2320   12.4090   36.9610 C.2   301  H1S301      0.3717
     16  O35       19.2550   13.0540   37.6670 O.3   301  H1S301     -0.4750
     17  S20       17.3860    3.6490   32.6360 S.3   301  H1S301     -0.0198
     18  C24       17.9700   10.6110   38.6090 C.2   301  H1S301     -0.0041
     19  S26       14.0950    8.1670   38.0260 S.O2  301  H1S301      0.2080
     20  O22       23.2410   10.0410   34.2840 O.2   301  H1S301     -0.1181
     21  O29       16.3330    2.8890   32.0580 O.3   301  H1S301     -0.2626
     22  O34       17.7020   12.9700   36.0250 O.2   301  H1S301     -0.2417
     23  O33       14.3150    6.9430   39.1280 O.3   301  H1S301     -0.2311
     24  O3        18.4090    8.2450   36.3980 O.3   301  H1S301     -0.3308
     25  O28       17.6590    3.1540   33.9410 O.3   301  H1S301     -0.2626
     26  C1        18.6040    7.7440   35.0470 C.3   301  H1S301      0.1186
     27  N14       16.9310    5.2330   32.7260 N.3   301  H1S301     -0.1845
     28  O5        18.7830    8.4780   32.6390 O.3   301  H1S301     -0.3416
     29  C2        18.5620    8.9230   34.0090 C.3   301  H1S301      0.1159
     30  O21       21.8500    9.6820   36.0910 O.2   301  H1S301     -0.1181
     31  O13       17.1560   10.2960   36.4020 O.2   301  H1S301     -0.4538
     32  O30       18.7440    3.5250   31.6920 O.3   301  H1S301     -0.2626
     33  O25       18.6410    8.3830   39.2520 O.3   301  H1S301     -0.3848
     34  O31       12.8690    8.8300   38.3060 O.2   301  H1S301     -0.1181
     35  O11       20.8940    9.7150   33.8510 O.3   301  H1S301     -0.2131
     36 H          16.4537    8.7903   31.6742 H     301  H1S301      0.2125
     37 H          16.4307    8.3954   35.8569 H     301  H1S301      0.1085
     38 H          18.0646    7.1542   31.2343 H     301  H1S301      0.0925
     39 H          16.4598    7.5193   38.1920 H     301  H1S301      0.0714
     40 H          16.5914    7.0953   34.5818 H     301  H1S301      0.0638
     41 H          18.5183    5.1930   35.4867 H     301  H1S301      0.2100
     42 H          19.6691   10.0552   35.4584 H     301  H1S301      0.0611
     43 H          19.2682   10.9401   33.9867 H     301  H1S301      0.0611
     44 H          20.8609   12.1206   35.3189 H     301  H1S301      0.2469
     45 H          18.8818    5.8061   33.1099 H     301  H1S301      0.0554
     46 H          16.9569    9.3430   39.9723 H     301  H1S301      0.0668
     47 H          19.6675   12.6249   38.3907 H     301  H1S301      0.2955
     48 H          18.4484   11.2198   39.2913 H     301  H1S301      0.0637
     49 H          15.5397    2.9626   32.6113 H     301  H1S301      0.2439
     50 H          15.1505    6.4867   38.9419 H     301  H1S301      0.2469
     51 H          16.8618    3.2289   34.4885 H     301  H1S301      0.2439
     52 H          19.5618    7.2685   35.0845 H     301  H1S301      0.0651
     53 H          16.6143    5.5044   31.7952 H     301  H1S301      0.1485
     54 H          17.5757    9.3363   34.0460 H     301  H1S301      0.0648
     55 H          19.4614    4.0441   32.0878 H     301  H1S301      0.2439
     56 H          19.1206    8.2892   38.4141 H     301  H1S301      0.2103
@<TRIPOS>BOND
     1     1     4    1
     2     2    31    1
     3     2    18    2
     4     2    15    1
     5     3    24    1
     6     3     6    1
     7     3    31    1
     8     4    28    1
     9     4    12    1
    10     5    19    2
    11     6    13    1
    12     6    14    1
    13     7    26    1
    14     7    12    1
    15     7     8    1
    16     9    29    1
    17     9    35    1
    18    10    35    1
    19    10    30    2
    20    10    20    2
    21    10    11    1
    22    12    27    1
    23    13    18    1
    24    13    33    1
    25    14    19    1
    26    15    22    2
    27    15    16    1
    28    17    27    1
    29    17    25    1
    30    17    21    1
    31    17    32    1
    32    19    34    2
    33    19    23    1
    34    24    26    1
    35    26    29    1
    36    28    29    1
    37     1    36    1
    38     3    37    1
    39     4    38    1
    40     6    39    1
    41     7    40    1
    42     8    41    1
    43     9    42    1
    44     9    43    1
    45    11    44    1
    46    12    45    1
    47    13    46    1
    48    16    47    1
    49    18    48    1
    50    21    49    1
    51    23    50    1
    52    25    51    1
    53    26    52    1
    54    27    53    1
    55    29    54    1
    56    32    55    1
    57    33    56    1
