@<TRIPOS>MOLECULE
1U4M_LIGAND_1.pdb
 52 53 0 0 0
SMALL
GASTEIGER

@<TRIPOS>ATOM
      1  C8        18.0960    6.3150   32.8800 C.3   301  H3S301      0.1076
      2  C12       16.7330    8.5840   37.8510 C.3   301  H3S301      0.1808
      3  O3        18.5970    8.2890   36.1470 O.3   301  H3S301     -0.3309
      4  O29       16.4020    2.9920   31.9560 O.3   301  H3S301     -0.2626
      5  O33       14.3150    7.0260   39.0130 O.2   301  H3S301     -0.1181
      6  O5        19.0570    8.5470   32.3760 O.3   301  H3S301     -0.3416
      7  O34       18.2210   12.9310   35.7930 O.2   301  H3S301     -0.2417
      8  C2        18.8260    8.9980   33.7520 C.3   301  H3S301      0.1133
      9  O9        17.7480    5.6750   35.2300 O.3   301  H3S301     -0.3874
     10  C17       17.7160    9.2280   38.9190 C.3   301  H3S301      0.1116
     11  C1        18.8050    7.8000   34.8080 C.3   301  H3S301      0.1185
     12  C10       18.0880    7.5390   31.9290 C.3   301  H3S301      0.1762
     13  O11       21.2260    9.5670   33.9410 O.3   301  H3S301     -0.3924
     14  C24       18.2590   10.6140   38.4970 C.2   301  H3S301     -0.0041
     15  O32       14.2090    7.6480   36.5480 O.2   301  H3S301     -0.1181
     16  O13       17.3660   10.3870   36.2870 O.2   301  H3S301     -0.4538
     17  O18       15.4310    9.2100   38.0180 O.3   301  H3S301     -0.2032
     18  S20       17.4970    3.7450   32.4610 S.3   301  H3S301     -0.0198
     19  O15       16.7570    8.1190   31.8810 O.3   301  H3S301     -0.3656
     20  S26       14.2380    8.2240   37.8670 S.O2  301  H3S301      0.2080
     21  O31       13.0360    8.9670   38.0590 O.3   301  H3S301     -0.2311
     22  O30       18.8500    3.4900   31.5340 O.3   301  H3S301     -0.2626
     23  O25       18.8230    8.3420   39.1370 O.3   301  H3S301     -0.3848
     24  C7        17.2640    8.9090   36.4020 C.3   301  H3S301      0.2340
     25  N14       17.1130    5.3440   32.4210 N.3   301  H3S301     -0.1845
     26  C6        19.8890   10.0590   34.1420 C.3   301  H3S301      0.0730
     27  C27       18.5750   12.4450   36.8440 C.2   301  H3S301      0.3717
     28  C19       18.0630   11.1170   37.2340 C.2   301  H3S301      0.2060
     29  O28       17.7570    3.3420   33.8040 O.3   301  H3S301     -0.2626
     30  C4        17.7620    6.7800   34.3140 C.3   301  H3S301      0.1055
     31  O35       19.4520   13.1590   37.6610 O.3   301  H3S301     -0.4750
     32 H          19.0633    5.8577   32.8801 H     301  H3S301      0.0554
     33 H          16.6715    7.5242   37.9846 H     301  H3S301      0.0714
     34 H          15.6193    3.1505   32.5066 H     301  H3S301      0.2439
     35 H          17.8509    9.4376   33.7824 H     301  H3S301      0.0647
     36 H          17.0960    5.0197   34.9362 H     301  H3S301      0.2100
     37 H          17.1478    9.3717   39.8142 H     301  H3S301      0.0668
     38 H          19.7494    7.3008   34.8693 H     301  H3S301      0.0651
     39 H          18.3659    7.2110   30.9492 H     301  H3S301      0.0925
     40 H          21.8642   10.2525   34.1935 H     301  H3S301      0.2095
     41 H          18.7838   11.1770   39.1845 H     301  H3S301      0.0637
     42 H          16.5022    8.4174   32.7681 H     301  H3S301      0.2125
     43 H          12.2725    8.3753   37.9702 H     301  H3S301      0.2469
     44 H          18.6726    3.7643   30.6207 H     301  H3S301      0.2439
     45 H          19.3171    8.2322   38.3095 H     301  H3S301      0.2103
     46 H          16.5880    8.5058   35.6772 H     301  H3S301      0.1085
     47 H          16.8937    5.5751   31.4520 H     301  H3S301      0.1485
     48 H          19.7638   10.3131   35.1738 H     301  H3S301      0.0584
     49 H          19.7505   10.9171   33.5179 H     301  H3S301      0.0584
     50 H          16.9660    3.4912   34.3452 H     301  H3S301      0.2439
     51 H          16.7913    7.2290   34.2809 H     301  H3S301      0.0638
     52 H          19.7339   12.7946   38.4769 H     301  H3S301      0.2955
@<TRIPOS>BOND
     1     1    30    1
     2     1    12    1
     3     1    25    1
     4     2    24    1
     5     2    10    1
     6     2    17    1
     7     3    11    1
     8     3    24    1
     9     4    18    1
    10     5    20    2
    11     6     8    1
    12     6    12    1
    13     7    27    2
    14     8    11    1
    15     8    26    1
    16     9    30    1
    17    10    14    1
    18    10    23    1
    19    11    30    1
    20    12    19    1
    21    13    26    1
    22    14    28    2
    23    15    20    2
    24    16    24    1
    25    16    28    1
    26    17    20    1
    27    18    25    1
    28    18    29    1
    29    18    22    1
    30    20    21    1
    31    27    28    1
    32    27    31    1
    33     1    32    1
    34     2    33    1
    35     4    34    1
    36     8    35    1
    37     9    36    1
    38    10    37    1
    39    11    38    1
    40    12    39    1
    41    13    40    1
    42    14    41    1
    43    19    42    1
    44    21    43    1
    45    22    44    1
    46    23    45    1
    47    24    46    1
    48    25    47    1
    49    26    48    1
    50    26    49    1
    51    29    50    1
    52    30    51    1
    53    31    52    1
