@<TRIPOS>MOLECULE
1XMN_LIGAND_2.pdb
 146 150 0 0 0
SMALL
GASTEIGER

@<TRIPOS>ATOM
      1  O5        88.8950    8.7690   39.3800 O.3     5  IDS5       -0.3314
      2  C4        88.3120   10.6720   38.0030 C.3     5  IDS5        0.1267
      3  O62       96.3360   16.0780   38.1880 O.2     3  IDS3       -0.2480
      4  S1        96.0840   17.9740   45.2860 S.3     2  SGN2       -0.0198
      5  O6        84.0450    4.4800   38.5140 O.3     6  SGN6       -0.2131
      6  O3S       89.5900    4.2100   44.9360 O.3     6  SGN6       -0.2626
      7  O5S       82.2880    5.6360   37.3830 O.2     6  SGN6       -0.1181
      8  C3        94.2730   15.7820   42.2990 C.3     3  IDS3        0.1176
      9  O6        99.2310   20.8180   39.6320 O.3     2  SGN2       -0.2132
     10  O4S       88.8990   18.0260   38.2160 O.2     4  SGN4       -0.1181
     11  N         88.0180    5.0350   43.2670 N.3     6  SGN6       -0.1845
     12  C1        96.6020   18.2290   41.9430 C.3     2  SGN2        0.1793
     13  C1        89.6900   12.5950   37.4330 C.3     4  SGN4        0.1795
     14  C5        89.7350   13.8480   39.5410 C.3     4  SGN4        0.1159
     15  C6        85.1010    5.4140   38.3450 C.3     6  SGN6        0.1076
     16  O6S       87.0850   17.4670   39.6710 O.2     4  SGN4       -0.1181
     17  C2        88.7440    8.3060   36.9880 C.3     5  IDS5        0.1684
     18  O1S       97.5150   17.9710   45.2230 O.3     2  SGN2       -0.2626
     19  O1        89.5970   11.3040   37.9990 O.3     4  SGN4       -0.3406
     20  C6        95.4080   16.6940   38.6580 C.2     3  IDS3        0.3367
     21  C1        86.0880    4.5220   41.8530 C.3     6  SGN6        0.1762
     22  S2        88.1220   16.9800   38.8080 S.O2    4  SGN4        0.2076
     23  C6        88.1550   10.7270   40.5890 C.2     5  IDS5        0.3367
     24  C4        87.2330    6.1580   39.6880 C.3     6  SGN6        0.1176
     25  S2       100.7530   20.5240   39.3780 S.O2    2  SGN2        0.2076
     26  O3S       92.8760   11.4700   34.1800 O.3     4  SGN4       -0.2626
     27  O1S       91.1680    9.4590   34.7880 O.2     5  IDS5       -0.1181
     28  O1        95.3620   17.8100   41.4230 O.3     2  SGN2       -0.3406
     29  O1        92.1230   14.6210   40.3240 O.3     3  IDS3       -0.3401
     30  O2        90.1190    8.3660   36.6470 O.3     5  IDS5       -0.2047
     31  C4        96.8780   21.0540   41.2150 C.3     2  SGN2        0.0036
     32  O3        95.6730   21.6610   43.2060 O.3     2  SGN2       -0.3899
     33  O6        89.0880   16.1580   39.7220 O.3     4  SGN4       -0.2131
     34  C3        91.9120   13.1560   38.4990 C.3     4  SGN4        0.1055
     35  C5        97.0650   19.8870   40.1960 C.3     2  SGN2        0.0897
     36  O3        89.0530    6.7360   41.1810 O.3     6  SGN6       -0.3874
     37  O5S       87.6280   16.0430   37.8340 O.3     4  SGN4       -0.2311
     38  O2S       91.6250   19.2260   43.8250 O.2     3  IDS3       -0.1181
     39  C2        92.7650   16.0930   42.0910 C.3     3  IDS3        0.1684
     40  O1        87.3790    7.1310   38.6280 O.3     5  IDS5       -0.3401
     41  O3S       95.5470   16.6580   45.0810 O.3     2  SGN2       -0.2626
     42  C2        87.5700    4.9720   41.8690 C.3     6  SGN6        0.1076
     43  C5        85.7360    5.6910   39.7250 C.3     6  SGN6        0.1159
     44  O2        92.5000   17.4150   42.5390 O.3     3  IDS3       -0.2047
     45  O2S       94.2110   12.1900   36.0210 O.3     4  SGN4       -0.2626
     46  O4S       81.8210    3.5440   38.4400 O.2     6  SGN6       -0.1181
     47  O3S       89.8300    7.5230   34.3970 O.2     5  IDS5       -0.1181
     48  O5        89.0650   13.5640   38.2850 O.3     4  SGN4       -0.3413
     49  O2S       91.9290    7.3110   35.5090 O.3     5  IDS5       -0.2311
     50  C6        88.8740   14.8790   40.2920 C.3     4  SGN4        0.1076
     51  O5        97.4630   18.6680   40.8810 O.3     2  SGN2       -0.3439
     52  C1        88.6410    7.7370   38.4310 C.3     5  IDS5        0.1916
     53  O2S       95.5780   18.5870   46.4820 O.3     2  SGN2       -0.2626
     54  S         90.7970    8.1560   35.2480 S.O2    5  IDS5        0.2080
     55  O3        86.7380    9.5920   36.5420 O.3     5  IDS5       -0.3863
     56  S1        89.6010    4.7630   43.6130 S.3     6  SGN6       -0.0198
     57  C4        95.1770   16.4150   41.2110 C.3     3  IDS3        0.1267
     58  C3        88.1260    9.7240   36.7870 C.3     5  IDS5        0.1176
     59  O1S       90.1340    3.8390   42.6550 O.3     6  SGN6       -0.2626
     60  S1        92.9920   12.3810   35.2850 S.3     4  SGN4       -0.0198
     61  S         91.2210   17.9660   43.2670 S.O2    3  IDS3        0.2080
     62  O5        93.2430   16.6090   39.7460 O.3     3  IDS3       -0.3314
     63  C6        98.1030   20.1530   39.0850 C.3     2  SGN2        0.1051
     64  O1        85.2870    5.3780   42.6320 O.3     6  SGN6       -0.3656
     65  O2S       90.2400    6.0460   43.5650 O.3     6  SGN6       -0.2626
     66  C2        91.1670   12.9930   37.1600 C.3     4  SGN4        0.1078
     67  C4        91.2100   14.2800   39.2900 C.3     4  SGN4        0.1176
     68  O1S       92.7960   13.7420   34.8690 O.3     4  SGN4       -0.2626
     69  O5S      100.9770   19.2260   39.9520 O.2     2  SGN2       -0.1181
     70  C1        92.2990   15.9800   40.6180 C.3     3  IDS3        0.1916
     71  C5        88.0190    9.9020   39.3100 C.3     5  IDS5        0.1863
     72  O61       89.1970   10.7760   41.2070 O.2     5  IDS5       -0.2480
     73  O3S       90.2140   18.1200   42.2590 O.3     3  IDS3       -0.2311
     74  O1S       90.8670   17.0000   44.2660 O.2     3  IDS3       -0.1181
     75  C3        87.7000    6.3320   41.1630 C.3     6  SGN6        0.1055
     76  C2        96.4050   19.3620   42.9860 C.3     2  SGN2        0.1054
     77  O3        93.2510   13.5290   38.2530 O.3     4  SGN4       -0.3874
     78  N         95.4940   18.8710   44.0360 N.3     2  SGN2       -0.1846
     79  C3        95.8460   20.6140   42.2720 C.3     2  SGN2        0.0793
     80  O6S       83.1600    3.6160   36.4580 O.3     6  SGN6       -0.2311
     81  O5        85.5950    4.4750   40.5150 O.3     6  SGN6       -0.3416
     82  N         91.7760   11.9590   36.3110 N.3     4  SGN4       -0.1845
     83  O3        94.4620   14.3800   42.2650 O.3     3  IDS3       -0.3863
     84  O4S      101.4960   21.5560   40.0390 O.2     2  SGN2       -0.1181
     85  C5        94.5940   16.1150   39.8130 C.3     3  IDS3        0.1863
     86  O6S      100.9350   20.5300   37.9530 O.3     2  SGN2       -0.2311
     87  O61       95.1530   17.7810   38.1870 O.3     3  IDS3       -0.4788
     88  O62       87.2150   11.3620   41.0130 O.3     5  IDS5       -0.4788
     89  S2        82.7500    4.3000   37.6500 S.O2    6  SGN6        0.2076
     90 H          87.6064   11.4731   37.9308 H       5  IDS5        0.0656
     91 H          89.1500    3.3457   44.9215 H       6  SGN6        0.2439
     92 H          94.5515   16.2015   43.2431 H       3  IDS3        0.0649
     93 H          87.4763    4.3433   43.7852 H       6  SGN6        0.1485
     94 H          97.0614   17.3975   42.4354 H       2  SGN2        0.0927
     95 H          89.1760   12.5742   36.4948 H       4  SGN4        0.0927
     96 H          89.8203   12.9809   40.1621 H       4  SGN4        0.0648
     97 H          84.7155    6.3244   37.9358 H       6  SGN6        0.0611
     98 H          85.8364    5.0186   37.6759 H       6  SGN6        0.0611
     99 H          88.1757    7.6503   36.3619 H       5  IDS5        0.0699
    100 H          97.8468   18.8714   45.3648 H       2  SGN2        0.2439
    101 H          86.0402    3.5407   42.2770 H       6  SGN6        0.0925
    102 H          87.9975    5.4855   39.3592 H       6  SGN6        0.0650
    103 H          93.0132   10.5624   34.4935 H       4  SGN4        0.2439
    104 H          97.8116   21.2724   41.6900 H       2  SGN2        0.0316
    105 H          96.5358   21.9329   40.7097 H       2  SGN2        0.0316
    106 H          95.3222   22.4437   42.7530 H       2  SGN2        0.2098
    107 H          91.9014   12.2379   39.0484 H       4  SGN4        0.0638
    108 H          96.1077   19.7924   39.7275 H       2  SGN2        0.0621
    109 H          89.1402    7.5938   40.7366 H       6  SGN6        0.2100
    110 H          87.0173   16.4952   37.2310 H       4  SGN4        0.2469
    111 H          92.2251   15.3586   42.6515 H       3  IDS3        0.0699
    112 H          95.9140   16.2825   44.2654 H       2  SGN2        0.2439
    113 H          88.1897    4.2765   41.3425 H       6  SGN6        0.0554
    114 H          85.2189    6.5209   40.1595 H       6  SGN6        0.0648
    115 H          94.2921   11.2576   36.2758 H       4  SGN4        0.2439
    116 H          92.5543    7.7772   36.0857 H       5  IDS5        0.2469
    117 H          89.1523   14.8950   41.3250 H       4  SGN4        0.0611
    118 H          87.8402   14.6149   40.2121 H       4  SGN4        0.0611
    119 H          89.3832    6.9793   38.5717 H       5  IDS5        0.0939
    120 H          95.9652   19.4708   46.5810 H       2  SGN2        0.2439
    121 H          86.3469   10.4707   36.4160 H       5  IDS5        0.2100
    122 H          96.1494   15.9732   41.2746 H       3  IDS3        0.0656
    123 H          88.6456   10.1624   35.9607 H       5  IDS5        0.0649
    124 H          89.6686    2.9912   42.7299 H       6  SGN6        0.2439
    125 H          98.4120   19.2223   38.6571 H       2  SGN2        0.0610
    126 H          97.6620   20.7681   38.3286 H       2  SGN2        0.0610
    127 H          85.3175    6.2744   42.2626 H       6  SGN6        0.2125
    128 H          89.8433    6.6299   44.2303 H       6  SGN6        0.2439
    129 H          91.2249   13.9303   36.6472 H       4  SGN4        0.0554
    130 H          91.0244   15.2257   38.8252 H       4  SGN4        0.0650
    131 H          93.5082   14.0007   34.2634 H       4  SGN4        0.2439
    132 H          91.3693   16.4889   40.4714 H       3  IDS3        0.0939
    133 H          86.9893    9.6148   39.2639 H       5  IDS5        0.0742
    134 H          90.5031   18.7819   41.6116 H       3  IDS3        0.2469
    135 H          87.1037    7.0701   41.6574 H       6  SGN6        0.0638
    136 H          97.3320   19.6370   43.4442 H       2  SGN2        0.0553
    137 H          93.2685   14.3611   37.7549 H       4  SGN4        0.2100
    138 H          95.0490   19.6917   44.4469 H       2  SGN2        0.1485
    139 H          94.9031   20.3897   41.8188 H       2  SGN2        0.0612
    140 H          83.7847    4.1710   35.9654 H       6  SGN6        0.2469
    141 H          92.1464   11.2412   36.9339 H       4  SGN4        0.1485
    142 H          94.1990   14.0393   41.3957 H       3  IDS3        0.2100
    143 H          94.6259   15.0521   39.6941 H       3  IDS3        0.0742
    144 H         100.7742   21.4231   37.6103 H       2  SGN2        0.2469
    145 H          94.4401   18.2840   38.5286 H       3  IDS3        0.2951
    146 H          86.3955   11.3456   40.5590 H       5  IDS5        0.2951
@<TRIPOS>BOND
     1     1    52    1
     2     1    71    1
     3     2    19    1
     4     2    58    1
     5     2    71    1
     6     3    20    2
     7     4    78    1
     8     4    18    1
     9     4    53    1
    10     4    41    1
    11     5    15    1
    12     5    89    1
    13     6    56    1
    14     7    89    2
    15     8    39    1
    16     8    57    1
    17     8    83    1
    18     9    63    1
    19     9    25    1
    20    10    22    2
    21    11    42    1
    22    11    56    1
    23    12    76    1
    24    12    28    1
    25    12    51    1
    26    13    66    1
    27    13    19    1
    28    13    48    1
    29    14    67    1
    30    14    50    1
    31    14    48    1
    32    15    43    1
    33    16    22    2
    34    17    52    1
    35    17    58    1
    36    17    30    1
    37    20    85    1
    38    20    87    1
    39    21    42    1
    40    21    64    1
    41    21    81    1
    42    22    33    1
    43    22    37    1
    44    23    71    1
    45    23    72    2
    46    23    88    1
    47    24    40    1
    48    24    75    1
    49    24    43    1
    50    25    84    2
    51    25    69    2
    52    25    86    1
    53    26    60    1
    54    27    54    2
    55    28    57    1
    56    29    70    1
    57    29    67    1
    58    30    54    1
    59    31    79    1
    60    31    35    1
    61    32    79    1
    62    33    50    1
    63    34    66    1
    64    34    67    1
    65    34    77    1
    66    35    63    1
    67    35    51    1
    68    36    75    1
    69    38    61    2
    70    39    70    1
    71    39    44    1
    72    40    52    1
    73    42    75    1
    74    43    81    1
    75    44    61    1
    76    45    60    1
    77    46    89    2
    78    47    54    2
    79    49    54    1
    80    55    58    1
    81    56    59    1
    82    56    65    1
    83    57    85    1
    84    60    82    1
    85    60    68    1
    86    61    74    2
    87    61    73    1
    88    62    70    1
    89    62    85    1
    90    66    82    1
    91    76    79    1
    92    76    78    1
    93    80    89    1
    94     2    90    1
    95     6    91    1
    96     8    92    1
    97    11    93    1
    98    12    94    1
    99    13    95    1
   100    14    96    1
   101    15    97    1
   102    15    98    1
   103    17    99    1
   104    18   100    1
   105    21   101    1
   106    24   102    1
   107    26   103    1
   108    31   104    1
   109    31   105    1
   110    32   106    1
   111    34   107    1
   112    35   108    1
   113    36   109    1
   114    37   110    1
   115    39   111    1
   116    41   112    1
   117    42   113    1
   118    43   114    1
   119    45   115    1
   120    49   116    1
   121    50   117    1
   122    50   118    1
   123    52   119    1
   124    53   120    1
   125    55   121    1
   126    57   122    1
   127    58   123    1
   128    59   124    1
   129    63   125    1
   130    63   126    1
   131    64   127    1
   132    65   128    1
   133    66   129    1
   134    67   130    1
   135    68   131    1
   136    70   132    1
   137    71   133    1
   138    73   134    1
   139    75   135    1
   140    76   136    1
   141    77   137    1
   142    78   138    1
   143    79   139    1
   144    80   140    1
   145    82   141    1
   146    83   142    1
   147    85   143    1
   148    86   144    1
   149    87   145    1
   150    88   146    1
