@<TRIPOS>MOLECULE
1XMN_LIGAND_1.pdb
 170 175 0 0 0
SMALL
GASTEIGER

@<TRIPOS>ATOM
      1  C2        55.2350  -19.5430   15.1500 C.3     6  SGN6        0.1078
      2  O6        67.3410   -6.0870   17.8910 O.3     2  SGN2       -0.2132
      3  O61       61.1640  -16.4620   14.2080 O.2     5  IDS5       -0.2480
      4  O5S       67.0780  -19.3040   13.7010 O.2     4  SGN4       -0.1181
      5  C2        69.7860   -8.4900   14.9320 C.3     2  SGN2        0.1054
      6  C1        68.3220   -8.9650   15.1470 C.3     2  SGN2        0.1793
      7  O3        61.1920  -21.2810   16.6290 O.3     5  IDS5       -0.3863
      8  O6S       67.7050  -18.1200   11.7250 O.2     4  SGN4       -0.1181
      9  O1        68.2790  -10.3560   15.4240 O.3     2  SGN2       -0.3406
     10  C3        64.4420  -15.5220   16.9700 C.3     4  SGN4        0.1055
     11  C4        65.2080  -15.5080   15.6270 C.3     4  SGN4        0.1176
     12  O5        67.4450  -13.3700   15.5350 O.3     3  IDS3       -0.3314
     13  O2S       63.7740  -15.0470   20.4760 O.3     4  SGN4       -0.2626
     14  O5S       56.6350  -17.5810   21.4010 O.2     6  SGN6       -0.1181
     15  C5        56.6570  -20.4440   17.5400 C.3     6  SGN6        0.1159
     16  O1        55.4060  -22.0010   15.3540 O.3     6  SGN6       -0.3406
     17  C3        65.8450  -11.1050   14.7350 C.3     3  IDS3        0.1176
     18  C6        56.8830  -20.3880   19.0750 C.3     6  SGN6        0.1076
     19  O5        64.8130  -17.9520   15.4580 O.3     4  SGN4       -0.3413
     20  N         70.3880   -9.3140   13.8690 N.3     2  SGN2       -0.1846
     21  S2        57.6270  -18.3260   20.6840 S.O2    6  SGN6        0.2076
     22  O1S       54.1550  -17.2840   13.6950 O.3     6  SGN6       -0.2626
     23  O3S       59.4550  -24.5390   11.2840 O.2     7  IDS7       -0.1181
     24  C4        57.1040  -19.1640   16.7610 C.3     6  SGN6        0.1176
     25  C6        67.5790   -7.3580   18.4600 C.3     2  SGN2        0.1051
     26  O4S       58.6160  -17.4760   20.0890 O.2     6  SGN6       -0.1181
     27  O3        71.8930   -8.1630   16.0790 O.3     2  SGN2       -0.3899
     28  C6        52.7410  -24.1720   15.3580 C.2     7  IDS7        0.3367
     29  O6S       66.2630   -5.0830   19.7960 O.2     2  SGN2       -0.1181
     30  O6        66.7540  -16.9470   13.5790 O.3     4  SGN4       -0.2131
     31  O3        64.9150  -14.4650   17.7850 O.3     4  SGN4       -0.3874
     32  O62       61.6190  -18.1310   13.0650 O.3     5  IDS5       -0.4788
     33  O6S       58.1950  -19.3720   21.4870 O.3     6  SGN6       -0.2311
     34  S         67.0230  -12.3680   11.3750 S.O2    3  IDS3        0.2080
     35  C2        55.9030  -24.0580   12.5240 C.3     7  IDS7        0.1682
     36  O3        57.1590  -18.1850   14.5710 O.3     6  SGN6       -0.3874
     37  C2        66.0060  -12.3560   13.8400 C.3     3  IDS3        0.1684
     38  O2S       58.8560  -23.6680   13.4290 O.2     7  IDS7       -0.1181
     39  N         54.8100  -19.7060   13.7510 N.3     6  SGN6       -0.1845
     40  O2S       60.8940  -20.0210   20.9470 O.2     5  IDS5       -0.1181
     41  C6        61.2480  -17.6670   14.1200 C.2     5  IDS5        0.3367
     42  C5        64.6730  -16.6850   14.7550 C.3     4  SGN4        0.1159
     43  C3        55.9800  -22.8600   13.4960 C.3     7  IDS7        0.1175
     44  C4        67.0180  -10.9680   15.7340 C.3     3  IDS3        0.1267
     45  C1        64.2080  -18.0320   16.7570 C.3     4  SGN4        0.1795
     46  O2S       55.5480  -18.1880   11.9700 O.3     6  SGN6       -0.2626
     47  C2        60.4820  -19.4530   18.0400 C.3     5  IDS5        0.1684
     48  O2        57.1240  -24.1890   11.7670 O.3     7  IDS7       -0.2047
     49  O1S       70.6770   -7.2150   12.5120 O.3     2  SGN2       -0.2626
     50  C3        61.6380  -20.0650   17.2030 C.3     5  IDS5        0.1176
     51  O5        60.0620  -17.8670   16.2120 O.3     5  IDS5       -0.3314
     52  C5        67.2190  -12.3120   16.4870 C.3     3  IDS3        0.1863
     53  O3S       63.0430  -19.4250   20.1060 O.2     5  IDS5       -0.1181
     54  O3        64.6350  -11.2090   15.4670 O.3     3  IDS3       -0.3863
     55  S1        64.6350  -16.1820   20.2900 S.3     4  SGN4       -0.0198
     56  O5        55.2440  -20.7150   17.3080 O.3     6  SGN6       -0.3413
     57  C1        59.4300  -18.6440   17.2220 C.3     5  IDS5        0.1916
     58  O5        67.7110   -8.2050   16.2040 O.3     2  SGN2       -0.3439
     59  O2S       72.0500   -9.1220   12.0650 O.3     2  SGN2       -0.2626
     60  S1        54.4220  -18.4000   12.8350 S.3     6  SGN6       -0.0198
     61  O3S       64.5290  -17.1290   21.3660 O.3     4  SGN4       -0.2626
     62  O3        56.1950  -21.6800   12.7470 O.3     7  IDS7       -0.3863
     63  O61       52.4420  -23.2390   16.0710 O.2     7  IDS7       -0.2480
     64  O1S       58.5870  -22.3250   11.4750 O.3     7  IDS7       -0.2311
     65  C6        68.3570  -12.3050   17.5060 C.2     3  IDS3        0.3367
     66  O1        65.2290  -14.1320   15.2550 O.3     3  IDS3       -0.3401
     67  O5S       65.0790   -5.3700   17.7430 O.2     2  SGN2       -0.1181
     68  O1        58.4840  -19.5360   16.6820 O.3     5  IDS5       -0.3401
     69  S1        70.7390   -8.6450   12.4060 S.3     2  SGN2       -0.0198
     70  O1S       66.1600  -11.3730   10.8130 O.2     3  IDS3       -0.1181
     71  C4        69.8740   -7.6930   17.2940 C.3     2  SGN2        0.0036
     72  O4S       68.9810  -17.8600   13.7300 O.3     4  SGN4       -0.2311
     73  O6        56.8360  -19.0290   19.5130 O.3     6  SGN6       -0.2131
     74  S         61.7130  -18.9730   20.3970 S.O2    5  IDS5        0.2080
     75  S2        67.6940  -18.1230   13.1580 S.O2    4  SGN4        0.2076
     76  C5        60.9030  -18.5820   15.2920 C.3     5  IDS5        0.1863
     77  O4S       66.8220   -3.7410   17.8970 O.3     2  SGN2       -0.2311
     78  C5        53.8470  -24.0470   14.3070 C.3     7  IDS7        0.1863
     79  O1        55.1140  -26.2960   12.4160 O.3     7  IDS7       -0.3648
     80  O3S       53.2500  -18.8070   12.1130 O.3     6  SGN6       -0.2626
     81  C6        65.3580  -16.8440   13.3860 C.3     4  SGN4        0.1076
     82  C3        56.7650  -19.3480   15.2690 C.3     6  SGN6        0.1055
     83  O61       69.5150  -12.4150   17.1620 O.2     3  IDS3       -0.2480
     84  C5        68.4150   -8.1910   17.4800 C.3     2  SGN2        0.0897
     85  C3        70.5650   -8.6040   16.2620 C.3     2  SGN2        0.0793
     86  O62       68.1270  -12.1860   18.6870 O.3     3  IDS3       -0.4788
     87  C1        54.8320  -20.8310   15.9350 C.3     6  SGN6        0.1795
     88  C2        64.7190  -16.8750   17.6630 C.3     4  SGN4        0.1078
     89  S         58.5940  -23.6560   12.0160 S.O2    7  IDS7        0.2080
     90  N         64.0430  -16.9810   18.9710 N.3     4  SGN4       -0.1845
     91  O3S       66.5310  -13.7070   11.1990 O.3     3  IDS3       -0.2311
     92  O1        62.7970  -18.0070   16.6500 O.3     4  SGN4       -0.3406
     93  C4        54.6720  -22.7120   14.3400 C.3     7  IDS7        0.1267
     94  O3S       69.7260   -9.1540   11.5220 O.3     2  SGN2       -0.2626
     95  C1        55.6510  -25.3690   13.3120 C.3     7  IDS7        0.1886
     96  O5        54.7650  -25.1580   14.4240 O.3     7  IDS7       -0.3316
     97  O2        67.0340  -12.1060   12.9090 O.3     3  IDS3       -0.2047
     98  S2        66.3220   -4.9980   18.3630 S.O2    2  SGN2        0.2076
     99  O1S       61.6910  -17.7780   21.1910 O.3     5  IDS5       -0.2311
    100  O2        61.0470  -18.5920   19.0210 O.3     5  IDS5       -0.2047
    101  C1        66.3800  -13.6430   14.6200 C.3     3  IDS3        0.1916
    102  O2S       68.3930  -12.2250   10.9620 O.2     3  IDS3       -0.1181
    103  C4        62.1300  -19.1370   16.0610 C.3     5  IDS5        0.1267
    104  O1S       66.0000  -15.8110   20.0470 O.3     4  SGN4       -0.2626
    105  O62       52.1260  -25.2070   15.5030 O.3     7  IDS7       -0.4788
    106 H          54.7594  -18.6717   15.5494 H       6  SGN6        0.0554
    107 H          69.8182   -7.4644   14.6288 H       2  SGN2        0.0553
    108 H          67.7684   -8.7988   14.2466 H       2  SGN2        0.0927
    109 H          60.8802  -21.8743   17.3302 H       5  IDS5        0.2100
    110 H          63.3917  -15.3969   16.8082 H       4  SGN4        0.0638
    111 H          66.2457  -15.7618   15.5659 H       4  SGN4        0.0650
    112 H          63.8779  -14.4366   19.7293 H       4  SGN4        0.2439
    113 H          57.2828  -21.2217   17.1547 H       6  SGN6        0.0648
    114 H          65.8351  -10.2429   14.1013 H       3  IDS3        0.0649
    115 H          57.8395  -20.8059   19.3104 H       6  SGN6        0.0611
    116 H          56.1177  -20.9492   19.5693 H       6  SGN6        0.0611
    117 H          69.7430  -10.0844   13.6931 H       2  SGN2        0.1485
    118 H          54.9665  -17.0369   14.1655 H       6  SGN6        0.2439
    119 H          56.7502  -18.2392   17.1665 H       6  SGN6        0.0650
    120 H          66.6466   -7.8493   18.6448 H       2  SGN2        0.0610
    121 H          68.1058   -7.2488   19.3849 H       2  SGN2        0.0610
    122 H          72.3360   -8.7317   15.4300 H       2  SGN2        0.2098
    123 H          65.8672  -14.5735   17.9349 H       4  SGN4        0.2100
    124 H          61.6953  -19.0592   12.9624 H       5  IDS5        0.2951
    125 H          57.4835  -19.9136   21.8629 H       6  SGN6        0.2469
    126 H          55.0932  -23.8804   11.8476 H       7  IDS7        0.0699
    127 H          56.9511  -18.2872   13.6291 H       6  SGN6        0.2100
    128 H          65.0560  -12.5274   13.3784 H       3  IDS3        0.0699
    129 H          53.9861  -20.3071   13.7650 H       6  SGN6        0.1485
    130 H          63.6486  -16.4314   14.5783 H       4  SGN4        0.0648
    131 H          56.7877  -23.0289   14.1771 H       7  IDS7        0.0649
    132 H          66.6337  -10.1557   16.3149 H       3  IDS3        0.0656
    133 H          64.4886  -18.9601   17.2095 H       4  SGN4        0.0927
    134 H          56.3146  -17.9154   12.4981 H       6  SGN6        0.2439
    135 H          59.9528  -20.2807   18.4639 H       5  IDS5        0.0699
    136 H          71.3716   -6.9050   13.1139 H       2  SGN2        0.2439
    137 H          62.4608  -20.2134   17.8707 H       5  IDS5        0.0649
    138 H          66.3192  -12.4698   17.0441 H       3  IDS3        0.0742
    139 H          64.6663  -11.9959   16.0333 H       3  IDS3        0.2100
    140 H          58.9231  -17.9568   17.8668 H       5  IDS5        0.0939
    141 H          72.6991   -8.7547   12.6852 H       2  SGN2        0.2439
    142 H          63.5967  -17.3583   21.5042 H       4  SGN4        0.2439
    143 H          55.4533  -21.5448   12.1367 H       7  IDS7        0.2100
    144 H          59.4630  -21.9247   11.5899 H       7  IDS7        0.2469
    145 H          69.8698   -6.6831   16.9405 H       2  SGN2        0.0316
    146 H          70.3979   -7.7265   18.2264 H       2  SGN2        0.0316
    147 H          69.5937  -18.5723   13.4888 H       4  SGN4        0.2469
    148 H          60.4070  -19.4306   14.8692 H       5  IDS5        0.0742
    149 H          67.6581   -3.5393   18.3454 H       2  SGN2        0.2469
    150 H          53.3274  -24.0476   13.3716 H       7  IDS7        0.0741
    151 H          55.7274  -26.4225   11.6753 H       7  IDS7        0.2126
    152 H          52.5168  -18.9384   12.7344 H       6  SGN6        0.2439
    153 H          64.9963  -17.7284   12.9045 H       4  SGN4        0.0611
    154 H          65.1397  -15.9954   12.7719 H       4  SGN4        0.0611
    155 H          57.2732  -20.1948   14.8573 H       6  SGN6        0.0638
    156 H          68.5168   -9.1740   17.8902 H       2  SGN2        0.0621
    157 H          70.5771   -9.6208   16.5950 H       2  SGN2        0.0612
    158 H          67.2432  -12.0989   18.9857 H       3  IDS3        0.2951
    159 H          53.7675  -20.9273   15.8847 H       6  SGN6        0.0927
    160 H          65.7752  -16.9408   17.8213 H       4  SGN4        0.0554
    161 H          63.0880  -16.6501   18.8337 H       4  SGN4        0.1485
    162 H          65.6069  -13.7528   11.4903 H       3  IDS3        0.2469
    163 H          53.7452  -22.2025   14.1779 H       7  IDS7        0.0656
    164 H          68.8602   -8.8073   11.7887 H       2  SGN2        0.2439
    165 H          56.5702  -25.7294   13.7245 H       7  IDS7        0.0937
    166 H          62.0922  -17.9570   22.0558 H       5  IDS5        0.2469
    167 H          66.7379  -14.4012   13.9551 H       3  IDS3        0.0939
    168 H          62.7774  -19.6848   15.4085 H       5  IDS5        0.0656
    169 H          66.0366  -15.1729   19.3173 H       4  SGN4        0.2439
    170 H          52.3283  -25.9508   14.9702 H       7  IDS7        0.2951
@<TRIPOS>BOND
     1     1    87    1
     2     1    82    1
     3     1    39    1
     4     2    25    1
     5     2    98    1
     6     3    41    2
     7     4    75    2
     8     5     6    1
     9     5    85    1
    10     5    20    1
    11     6     9    1
    12     6    58    1
    13     7    50    1
    14     8    75    2
    15     9    44    1
    16    10    88    1
    17    10    11    1
    18    10    31    1
    19    11    66    1
    20    11    42    1
    21    12   101    1
    22    12    52    1
    23    13    55    1
    24    14    21    2
    25    15    24    1
    26    15    18    1
    27    15    56    1
    28    16    87    1
    29    16    93    1
    30    17    37    1
    31    17    44    1
    32    17    54    1
    33    18    73    1
    34    19    45    1
    35    19    42    1
    36    20    69    1
    37    21    73    1
    38    21    26    2
    39    21    33    1
    40    22    60    1
    41    23    89    2
    42    24    68    1
    43    24    82    1
    44    25    84    1
    45    27    85    1
    46    28    78    1
    47    28    63    2
    48    28   105    1
    49    29    98    2
    50    30    81    1
    51    30    75    1
    52    32    41    1
    53    34    97    1
    54    34    70    2
    55    34   102    2
    56    34    91    1
    57    35    95    1
    58    35    43    1
    59    35    48    1
    60    36    82    1
    61    37   101    1
    62    37    97    1
    63    38    89    2
    64    39    60    1
    65    40    74    2
    66    41    76    1
    67    42    81    1
    68    43    93    1
    69    43    62    1
    70    44    52    1
    71    45    88    1
    72    45    92    1
    73    46    60    1
    74    47    57    1
    75    47    50    1
    76    47   100    1
    77    48    89    1
    78    49    69    1
    79    50   103    1
    80    51    57    1
    81    51    76    1
    82    52    65    1
    83    53    74    2
    84    55    90    1
    85    55   104    1
    86    55    61    1
    87    56    87    1
    88    57    68    1
    89    58    84    1
    90    59    69    1
    91    60    80    1
    92    64    89    1
    93    65    83    2
    94    65    86    1
    95    66   101    1
    96    67    98    2
    97    69    94    1
    98    71    85    1
    99    71    84    1
   100    72    75    1
   101    74   100    1
   102    74    99    1
   103    76   103    1
   104    77    98    1
   105    78    93    1
   106    78    96    1
   107    79    95    1
   108    88    90    1
   109    92   103    1
   110    95    96    1
   111     1   106    1
   112     5   107    1
   113     6   108    1
   114     7   109    1
   115    10   110    1
   116    11   111    1
   117    13   112    1
   118    15   113    1
   119    17   114    1
   120    18   115    1
   121    18   116    1
   122    20   117    1
   123    22   118    1
   124    24   119    1
   125    25   120    1
   126    25   121    1
   127    27   122    1
   128    31   123    1
   129    32   124    1
   130    33   125    1
   131    35   126    1
   132    36   127    1
   133    37   128    1
   134    39   129    1
   135    42   130    1
   136    43   131    1
   137    44   132    1
   138    45   133    1
   139    46   134    1
   140    47   135    1
   141    49   136    1
   142    50   137    1
   143    52   138    1
   144    54   139    1
   145    57   140    1
   146    59   141    1
   147    61   142    1
   148    62   143    1
   149    64   144    1
   150    71   145    1
   151    71   146    1
   152    72   147    1
   153    76   148    1
   154    77   149    1
   155    78   150    1
   156    79   151    1
   157    80   152    1
   158    81   153    1
   159    81   154    1
   160    82   155    1
   161    84   156    1
   162    85   157    1
   163    86   158    1
   164    87   159    1
   165    88   160    1
   166    90   161    1
   167    91   162    1
   168    93   163    1
   169    94   164    1
   170    95   165    1
   171    99   166    1
   172   101   167    1
   173   103   168    1
   174   104   169    1
   175   105   170    1
