@<TRIPOS>MOLECULE
1XMN_LIGAND_1_uncharged.pdb
 155 160 0 0 0
SMALL
GASTEIGER

@<TRIPOS>ATOM
      1  C2        55.2350  -19.5430   15.1500 C.3     6  SGN6        0.1081
      2  O6        67.3410   -6.0870   17.8910 O.3     2  SGN2       -0.2521
      3  O61       61.1640  -16.4620   14.2080 O.2     5  IDS5       -0.2480
      4  O5S       67.0780  -19.3040   13.7010 O.2     4  SGN4       -0.3452
      5  C2        69.7860   -8.4900   14.9320 C.3     2  SGN2        0.1056
      6  C1        68.3220   -8.9650   15.1470 C.3     2  SGN2        0.1793
      7  O3        61.1920  -21.2810   16.6290 O.3     5  IDS5       -0.3863
      8  O6S       67.7050  -18.1200   11.7250 O.2     4  SGN4       -0.3452
      9  O1        68.2790  -10.3560   15.4240 O.3     2  SGN2       -0.3406
     10  C3        64.4420  -15.5220   16.9700 C.3     4  SGN4        0.1055
     11  C4        65.2080  -15.5080   15.6270 C.3     4  SGN4        0.1176
     12  O5        67.4450  -13.3700   15.5350 O.3     3  IDS3       -0.3314
     13  O2S       63.7740  -15.0470   20.4760 O.3     4  SGN4       -0.0534
     14  O5S       56.6350  -17.5810   21.4010 O.2     6  SGN6       -0.3452
     15  C5        56.6570  -20.4440   17.5400 C.3     6  SGN6        0.1158
     16  O1        55.4060  -22.0010   15.3540 O.3     6  SGN6       -0.3406
     17  C3        65.8450  -11.1050   14.7350 C.3     3  IDS3        0.1174
     18  C6        56.8830  -20.3880   19.0750 C.3     6  SGN6        0.1035
     19  O5        64.8130  -17.9520   15.4580 O.3     4  SGN4       -0.3413
     20  N         70.3880   -9.3140   13.8690 N.3     2  SGN2       -0.1776
     21  S2        57.6270  -18.3260   20.6840 S.3     6  SGN6       -0.0008
     22  O1S       54.1550  -17.2840   13.6950 O.3     6  SGN6       -0.0534
     23  O3S       59.4550  -24.5390   11.2840 O.2     7  IDS7       -0.3452
     24  C4        57.1040  -19.1640   16.7610 C.3     6  SGN6        0.1176
     25  C6        67.5790   -7.3580   18.4600 C.3     2  SGN2        0.1011
     26  O4S       58.6160  -17.4760   20.0890 O.2     6  SGN6       -0.3452
     27  O3        71.8930   -8.1630   16.0790 O.3     2  SGN2       -0.3899
     28  C6        52.7410  -24.1720   15.3580 C.2     7  IDS7        0.3367
     29  O6S       66.2630   -5.0830   19.7960 O.2     2  SGN2       -0.3452
     30  O6        66.7540  -16.9470   13.5790 O.3     4  SGN4       -0.2520
     31  O3        64.9150  -14.4650   17.7850 O.3     4  SGN4       -0.3874
     32  O62       61.6190  -18.1310   13.0650 O.3     5  IDS5       -0.4788
     33  O6S       58.1950  -19.3720   21.4870 O.3     6  SGN6       -0.2682
     34  S         67.0230  -12.3680   11.3750 S.3     3  IDS3       -0.0004
     35  C2        55.9030  -24.0580   12.5240 C.3     7  IDS7        0.1642
     36  O3        57.1590  -18.1850   14.5710 O.3     6  SGN6       -0.3874
     37  C2        66.0060  -12.3560   13.8400 C.3     3  IDS3        0.1644
     38  O2S       58.8560  -23.6680   13.4290 O.2     7  IDS7       -0.3452
     39  N         54.8100  -19.7060   13.7510 N.3     6  SGN6       -0.1775
     40  O2S       60.8940  -20.0210   20.9470 O.2     5  IDS5       -0.3452
     41  C6        61.2480  -17.6670   14.1200 C.2     5  IDS5        0.3367
     42  C5        64.6730  -16.6850   14.7550 C.3     4  SGN4        0.1158
     43  C3        55.9800  -22.8600   13.4960 C.3     7  IDS7        0.1174
     44  C4        67.0180  -10.9680   15.7340 C.3     3  IDS3        0.1267
     45  C1        64.2080  -18.0320   16.7570 C.3     4  SGN4        0.1795
     46  O2S       55.5480  -18.1880   11.9700 O.3     6  SGN6       -0.0534
     47  C2        60.4820  -19.4530   18.0400 C.3     5  IDS5        0.1644
     48  O2        57.1240  -24.1890   11.7670 O.3     7  IDS7       -0.2435
     49  O1S       70.6770   -7.2150   12.5120 O.3     2  SGN2       -0.0534
     50  C3        61.6380  -20.0650   17.2030 C.3     5  IDS5        0.1174
     51  O5        60.0620  -17.8670   16.2120 O.3     5  IDS5       -0.3314
     52  C5        67.2190  -12.3120   16.4870 C.3     3  IDS3        0.1863
     53  O3S       63.0430  -19.4250   20.1060 O.2     5  IDS5       -0.3452
     54  O3        64.6350  -11.2090   15.4670 O.3     3  IDS3       -0.3863
     55  S1        64.6350  -16.1820   20.2900 S.3     4  SGN4        0.0767
     56  O5        55.2440  -20.7150   17.3080 O.3     6  SGN6       -0.3413
     57  C1        59.4300  -18.6440   17.2220 C.3     5  IDS5        0.1915
     58  O5        67.7110   -8.2050   16.2040 O.3     2  SGN2       -0.3439
     59  O2S       72.0500   -9.1220   12.0650 O.3     2  SGN2       -0.0534
     60  S1        54.4220  -18.4000   12.8350 S.3     6  SGN6        0.0767
     61  O3S       64.5290  -17.1290   21.3660 O.3     4  SGN4       -0.0534
     62  O3        56.1950  -21.6800   12.7470 O.3     7  IDS7       -0.3863
     63  O61       52.4420  -23.2390   16.0710 O.2     7  IDS7       -0.2480
     64  O1S       58.5870  -22.3250   11.4750 O.3     7  IDS7       -0.2682
     65  C6        68.3570  -12.3050   17.5060 C.2     3  IDS3        0.3367
     66  O1        65.2290  -14.1320   15.2550 O.3     3  IDS3       -0.3401
     67  O5S       65.0790   -5.3700   17.7430 O.2     2  SGN2       -0.3452
     68  O1        58.4840  -19.5360   16.6820 O.3     5  IDS5       -0.3401
     69  S1        70.7390   -8.6450   12.4060 S.3     2  SGN2        0.0767
     70  O1S       66.1600  -11.3730   10.8130 O.2     3  IDS3       -0.3452
     71  C4        69.8740   -7.6930   17.2940 C.3     2  SGN2        0.0036
     72  O4S       68.9810  -17.8600   13.7300 O.3     4  SGN4       -0.2682
     73  O6        56.8360  -19.0290   19.5130 O.3     6  SGN6       -0.2520
     74  S         61.7130  -18.9730   20.3970 S.3     5  IDS5       -0.0004
     75  S2        67.6940  -18.1230   13.1580 S.3     4  SGN4       -0.0008
     76  C5        60.9030  -18.5820   15.2920 C.3     5  IDS5        0.1863
     77  O4S       66.8220   -3.7410   17.8970 O.3     2  SGN2       -0.2682
     78  C5        53.8470  -24.0470   14.3070 C.3     7  IDS7        0.1863
     79  O1        55.1140  -26.2960   12.4160 O.3     7  IDS7       -0.3648
     80  O3S       53.2500  -18.8070   12.1130 O.3     6  SGN6       -0.0534
     81  C6        65.3580  -16.8440   13.3860 C.3     4  SGN4        0.1035
     82  C3        56.7650  -19.3480   15.2690 C.3     6  SGN6        0.1055
     83  O61       69.5150  -12.4150   17.1620 O.2     3  IDS3       -0.2480
     84  C5        68.4150   -8.1910   17.4800 C.3     2  SGN2        0.0896
     85  C3        70.5650   -8.6040   16.2620 C.3     2  SGN2        0.0793
     86  O62       68.1270  -12.1860   18.6870 O.3     3  IDS3       -0.4788
     87  C1        54.8320  -20.8310   15.9350 C.3     6  SGN6        0.1795
     88  C2        64.7190  -16.8750   17.6630 C.3     4  SGN4        0.1081
     89  S         58.5940  -23.6560   12.0160 S.3     7  IDS7       -0.0004
     90  N         64.0430  -16.9810   18.9710 N.3     4  SGN4       -0.1775
     91  O3S       66.5310  -13.7070   11.1990 O.3     3  IDS3       -0.2682
     92  O1        62.7970  -18.0070   16.6500 O.3     4  SGN4       -0.3406
     93  C4        54.6720  -22.7120   14.3400 C.3     7  IDS7        0.1267
     94  O3S       69.7260   -9.1540   11.5220 O.3     2  SGN2       -0.0534
     95  C1        55.6510  -25.3690   13.3120 C.3     7  IDS7        0.1885
     96  O5        54.7650  -25.1580   14.4240 O.3     7  IDS7       -0.3316
     97  O2        67.0340  -12.1060   12.9090 O.3     3  IDS3       -0.2435
     98  S2        66.3220   -4.9980   18.3630 S.3     2  SGN2       -0.0008
     99  O1S       61.6910  -17.7780   21.1910 O.3     5  IDS5       -0.2682
    100  O2        61.0470  -18.5920   19.0210 O.3     5  IDS5       -0.2435
    101  C1        66.3800  -13.6430   14.6200 C.3     3  IDS3        0.1915
    102  O2S       68.3930  -12.2250   10.9620 O.2     3  IDS3       -0.3452
    103  C4        62.1300  -19.1370   16.0610 C.3     5  IDS5        0.1267
    104  O1S       66.0000  -15.8110   20.0470 O.3     4  SGN4       -0.0534
    105  O62       52.1260  -25.2070   15.5030 O.3     7  IDS7       -0.4788
    106  H         54.7590  -18.6720   15.5490 H       6  SGN6        0.0554
    107  H         69.8180   -7.4640   14.6290 H       2  SGN2        0.0553
    108  H         67.7680   -8.7990   14.2470 H       2  SGN2        0.0927
    109  H         60.8800  -21.8740   17.3300 H       5  IDS5        0.2100
    110  H         63.3920  -15.3970   16.8080 H       4  SGN4        0.0638
    111  H         66.2460  -15.7620   15.5660 H       4  SGN4        0.0650
    112  H         57.2830  -21.2220   17.1550 H       6  SGN6        0.0648
    113  H         65.8350  -10.2430   14.1010 H       3  IDS3        0.0649
    114  H         57.8400  -20.8060   19.3100 H       6  SGN6        0.0610
    115  H         56.1180  -20.9490   19.5690 H       6  SGN6        0.0610
    116  H         69.7430  -10.0840   13.6930 H       2  SGN2        0.1487
    117  H         56.7500  -18.2390   17.1660 H       6  SGN6        0.0650
    118  H         66.6470   -7.8490   18.6450 H       2  SGN2        0.0609
    119  H         68.1060   -7.2490   19.3850 H       2  SGN2        0.0609
    120  H         72.3360   -8.7320   15.4300 H       2  SGN2        0.2098
    121  H         65.8670  -14.5730   17.9350 H       4  SGN4        0.2100
    122  H         61.6950  -19.0590   12.9620 H       5  IDS5        0.2951
    123  H         55.0930  -23.8800   11.8480 H       7  IDS7        0.0698
    124  H         56.9510  -18.2870   13.6290 H       6  SGN6        0.2100
    125  H         65.0560  -12.5270   13.3780 H       3  IDS3        0.0698
    126  H         53.9860  -20.3070   13.7650 H       6  SGN6        0.1487
    127  H         63.6490  -16.4310   14.5780 H       4  SGN4        0.0648
    128  H         56.7880  -23.0290   14.1770 H       7  IDS7        0.0649
    129  H         66.6340  -10.1560   16.3150 H       3  IDS3        0.0656
    130  H         64.4890  -18.9600   17.2090 H       4  SGN4        0.0927
    131  H         59.9530  -20.2810   18.4640 H       5  IDS5        0.0698
    132  H         62.4610  -20.2130   17.8710 H       5  IDS5        0.0649
    133  H         66.3190  -12.4700   17.0440 H       3  IDS3        0.0742
    134  H         64.6660  -11.9960   16.0330 H       3  IDS3        0.2100
    135  H         58.9230  -17.9570   17.8670 H       5  IDS5        0.0939
    136  H         55.4530  -21.5450   12.1370 H       7  IDS7        0.2100
    137  H         69.8700   -6.6830   16.9410 H       2  SGN2        0.0316
    138  H         70.3980   -7.7260   18.2260 H       2  SGN2        0.0316
    139  H         60.4070  -19.4310   14.8690 H       5  IDS5        0.0742
    140  H         53.3270  -24.0480   13.3720 H       7  IDS7        0.0741
    141  H         55.7270  -26.4220   11.6750 H       7  IDS7        0.2126
    142  H         64.9960  -17.7280   12.9050 H       4  SGN4        0.0610
    143  H         65.1400  -15.9950   12.7720 H       4  SGN4        0.0610
    144  H         57.2730  -20.1950   14.8570 H       6  SGN6        0.0638
    145  H         68.5170   -9.1740   17.8900 H       2  SGN2        0.0621
    146  H         70.5770   -9.6210   16.5950 H       2  SGN2        0.0612
    147  H         67.2430  -12.0990   18.9860 H       3  IDS3        0.2951
    148  H         53.7670  -20.9270   15.8850 H       6  SGN6        0.0927
    149  H         65.7750  -16.9410   17.8210 H       4  SGN4        0.0554
    150  H         63.0880  -16.6500   18.8340 H       4  SGN4        0.1487
    151  H         53.7450  -22.2030   14.1780 H       7  IDS7        0.0656
    152  H         56.5700  -25.7290   13.7250 H       7  IDS7        0.0936
    153  H         66.7380  -14.4010   13.9550 H       3  IDS3        0.0939
    154  H         62.7770  -19.6850   15.4090 H       5  IDS5        0.0656
    155  H         52.3280  -25.9510   14.9700 H       7  IDS7        0.2951
@<TRIPOS>BOND
     1     1    87    1
     2     1    82    1
     3     1    39    1
     4     1   106    1
     5     2    25    1
     6     2    98    1
     7     3    41    2
     8     4    75    2
     9     5     6    1
    10     5    85    1
    11     5    20    1
    12     5   107    1
    13     6     9    1
    14     6    58    1
    15     6   108    1
    16     7    50    1
    17     7   109    1
    18     8    75    2
    19     9    44    1
    20    10    88    1
    21    10    11    1
    22    10    31    1
    23    10   110    1
    24    11    66    1
    25    11    42    1
    26    11   111    1
    27    12   101    1
    28    12    52    1
    29    13    55    1
    30    14    21    2
    31    15    24    1
    32    15    18    1
    33    15    56    1
    34    15   112    1
    35    16    87    1
    36    16    93    1
    37    17    37    1
    38    17    44    1
    39    17    54    1
    40    17   113    1
    41    18    73    1
    42    18   114    1
    43    18   115    1
    44    19    45    1
    45    19    42    1
    46    20    69    1
    47    20   116    1
    48    21    73    1
    49    21    26    2
    50    21    33    1
    51    22    60    1
    52    23    89    2
    53    24    68    1
    54    24    82    1
    55    24   117    1
    56    25    84    1
    57    25   118    1
    58    25   119    1
    59    27    85    1
    60    27   120    1
    61    28    78    1
    62    28    63    2
    63    28   105    1
    64    29    98    2
    65    30    81    1
    66    30    75    1
    67    31   121    1
    68    32    41    1
    69    32   122    1
    70    34    97    1
    71    34    70    2
    72    34   102    2
    73    34    91    1
    74    35    95    1
    75    35    43    1
    76    35    48    1
    77    35   123    1
    78    36    82    1
    79    36   124    1
    80    37   101    1
    81    37    97    1
    82    37   125    1
    83    38    89    2
    84    39    60    1
    85    39   126    1
    86    40    74    2
    87    41    76    1
    88    42    81    1
    89    42   127    1
    90    43    93    1
    91    43    62    1
    92    43   128    1
    93    44    52    1
    94    44   129    1
    95    45    88    1
    96    45    92    1
    97    45   130    1
    98    46    60    1
    99    47    57    1
   100    47    50    1
   101    47   100    1
   102    47   131    1
   103    48    89    1
   104    49    69    1
   105    50   103    1
   106    50   132    1
   107    51    57    1
   108    51    76    1
   109    52    65    1
   110    52   133    1
   111    53    74    2
   112    54   134    1
   113    55    90    1
   114    55   104    1
   115    55    61    1
   116    56    87    1
   117    57    68    1
   118    57   135    1
   119    58    84    1
   120    59    69    1
   121    60    80    1
   122    62   136    1
   123    64    89    1
   124    65    83    2
   125    65    86    1
   126    66   101    1
   127    67    98    2
   128    69    94    1
   129    71    85    1
   130    71    84    1
   131    71   137    1
   132    71   138    1
   133    72    75    1
   134    74   100    1
   135    74    99    1
   136    76   103    1
   137    76   139    1
   138    77    98    1
   139    78    93    1
   140    78    96    1
   141    78   140    1
   142    79    95    1
   143    79   141    1
   144    81   142    1
   145    81   143    1
   146    82   144    1
   147    84   145    1
   148    85   146    1
   149    86   147    1
   150    87   148    1
   151    88    90    1
   152    88   149    1
   153    90   150    1
   154    92   103    1
   155    93   151    1
   156    95    96    1
   157    95   152    1
   158   101   153    1
   159   103   154    1
   160   105   155    1
