@<TRIPOS>MOLECULE
1XMN_LIGAND_2_uncharged.pdb
 132 136 0 0 0
SMALL
GASTEIGER

@<TRIPOS>ATOM
      1  O5        88.8950    8.7690   39.3800 O.3     5  IDS5       -0.3314
      2  C4        88.3120   10.6720   38.0030 C.3     5  IDS5        0.1267
      3  O62       96.3360   16.0780   38.1880 O.2     3  IDS3       -0.2480
      4  S1        96.0840   17.9740   45.2860 S.3     2  SGN2        0.0767
      5  O6        84.0450    4.4800   38.5140 O.3     6  SGN6       -0.2520
      6  O3S       89.5900    4.2100   44.9360 O.3     6  SGN6       -0.0534
      7  O5S       82.2880    5.6360   37.3830 O.2     6  SGN6       -0.3452
      8  C3        94.2730   15.7820   42.2990 C.3     3  IDS3        0.1174
      9  O6        99.2310   20.8180   39.6320 O.3     2  SGN2       -0.2521
     10  O4S       88.8990   18.0260   38.2160 O.2     4  SGN4       -0.3452
     11  N         88.0180    5.0350   43.2670 N.3     6  SGN6       -0.1775
     12  C1        96.6020   18.2290   41.9430 C.3     2  SGN2        0.1793
     13  C1        89.6900   12.5950   37.4330 C.3     4  SGN4        0.1795
     14  C5        89.7350   13.8480   39.5410 C.3     4  SGN4        0.1158
     15  C6        85.1010    5.4140   38.3450 C.3     6  SGN6        0.1035
     16  O6S       87.0850   17.4670   39.6710 O.2     4  SGN4       -0.3452
     17  C2        88.7440    8.3060   36.9880 C.3     5  IDS5        0.1644
     18  O1S       97.5150   17.9710   45.2230 O.3     2  SGN2       -0.0534
     19  O1        89.5970   11.3040   37.9990 O.3     4  SGN4       -0.3406
     20  C6        95.4080   16.6940   38.6580 C.2     3  IDS3        0.3367
     21  C1        86.0880    4.5220   41.8530 C.3     6  SGN6        0.1762
     22  S2        88.1220   16.9800   38.8080 S.3     4  SGN4       -0.0008
     23  C6        88.1550   10.7270   40.5890 C.2     5  IDS5        0.3367
     24  C4        87.2330    6.1580   39.6880 C.3     6  SGN6        0.1176
     25  S2       100.7530   20.5240   39.3780 S.3     2  SGN2       -0.0008
     26  O3S       92.8760   11.4700   34.1800 O.3     4  SGN4       -0.0534
     27  O1S       91.1680    9.4590   34.7880 O.2     5  IDS5       -0.3452
     28  O1        95.3620   17.8100   41.4230 O.3     2  SGN2       -0.3406
     29  O1        92.1230   14.6210   40.3240 O.3     3  IDS3       -0.3401
     30  O2        90.1190    8.3660   36.6470 O.3     5  IDS5       -0.2435
     31  C4        96.8780   21.0540   41.2150 C.3     2  SGN2        0.0036
     32  O3        95.6730   21.6610   43.2060 O.3     2  SGN2       -0.3899
     33  O6        89.0880   16.1580   39.7220 O.3     4  SGN4       -0.2520
     34  C3        91.9120   13.1560   38.4990 C.3     4  SGN4        0.1055
     35  C5        97.0650   19.8870   40.1960 C.3     2  SGN2        0.0896
     36  O3        89.0530    6.7360   41.1810 O.3     6  SGN6       -0.3874
     37  O5S       87.6280   16.0430   37.8340 O.3     4  SGN4       -0.2682
     38  O2S       91.6250   19.2260   43.8250 O.2     3  IDS3       -0.3452
     39  C2        92.7650   16.0930   42.0910 C.3     3  IDS3        0.1644
     40  O1        87.3790    7.1310   38.6280 O.3     5  IDS5       -0.3401
     41  O3S       95.5470   16.6580   45.0810 O.3     2  SGN2       -0.0534
     42  C2        87.5700    4.9720   41.8690 C.3     6  SGN6        0.1079
     43  C5        85.7360    5.6910   39.7250 C.3     6  SGN6        0.1158
     44  O2        92.5000   17.4150   42.5390 O.3     3  IDS3       -0.2435
     45  O2S       94.2110   12.1900   36.0210 O.3     4  SGN4       -0.0534
     46  O4S       81.8210    3.5440   38.4400 O.2     6  SGN6       -0.3452
     47  O3S       89.8300    7.5230   34.3970 O.2     5  IDS5       -0.3452
     48  O5        89.0650   13.5640   38.2850 O.3     4  SGN4       -0.3413
     49  O2S       91.9290    7.3110   35.5090 O.3     5  IDS5       -0.2682
     50  C6        88.8740   14.8790   40.2920 C.3     4  SGN4        0.1035
     51  O5        97.4630   18.6680   40.8810 O.3     2  SGN2       -0.3439
     52  C1        88.6410    7.7370   38.4310 C.3     5  IDS5        0.1915
     53  O2S       95.5780   18.5870   46.4820 O.3     2  SGN2       -0.0534
     54  S         90.7970    8.1560   35.2480 S.3     5  IDS5       -0.0004
     55  O3        86.7380    9.5920   36.5420 O.3     5  IDS5       -0.3863
     56  S1        89.6010    4.7630   43.6130 S.3     6  SGN6        0.0767
     57  C4        95.1770   16.4150   41.2110 C.3     3  IDS3        0.1267
     58  C3        88.1260    9.7240   36.7870 C.3     5  IDS5        0.1174
     59  O1S       90.1340    3.8390   42.6550 O.3     6  SGN6       -0.0534
     60  S1        92.9920   12.3810   35.2850 S.3     4  SGN4        0.0767
     61  S         91.2210   17.9660   43.2670 S.3     3  IDS3       -0.0004
     62  O5        93.2430   16.6090   39.7460 O.3     3  IDS3       -0.3314
     63  C6        98.1030   20.1530   39.0850 C.3     2  SGN2        0.1011
     64  O1        85.2870    5.3780   42.6320 O.3     6  SGN6       -0.3656
     65  O2S       90.2400    6.0460   43.5650 O.3     6  SGN6       -0.0534
     66  C2        91.1670   12.9930   37.1600 C.3     4  SGN4        0.1081
     67  C4        91.2100   14.2800   39.2900 C.3     4  SGN4        0.1176
     68  O1S       92.7960   13.7420   34.8690 O.3     4  SGN4       -0.0534
     69  O5S      100.9770   19.2260   39.9520 O.2     2  SGN2       -0.3452
     70  C1        92.2990   15.9800   40.6180 C.3     3  IDS3        0.1915
     71  C5        88.0190    9.9020   39.3100 C.3     5  IDS5        0.1863
     72  O61       89.1970   10.7760   41.2070 O.2     5  IDS5       -0.2480
     73  O3S       90.2140   18.1200   42.2590 O.3     3  IDS3       -0.2682
     74  O1S       90.8670   17.0000   44.2660 O.2     3  IDS3       -0.3452
     75  C3        87.7000    6.3320   41.1630 C.3     6  SGN6        0.1055
     76  C2        96.4050   19.3620   42.9860 C.3     2  SGN2        0.1056
     77  O3        93.2510   13.5290   38.2530 O.3     4  SGN4       -0.3874
     78  N         95.4940   18.8710   44.0360 N.3     2  SGN2       -0.1776
     79  C3        95.8460   20.6140   42.2720 C.3     2  SGN2        0.0793
     80  O6S       83.1600    3.6160   36.4580 O.3     6  SGN6       -0.2682
     81  O5        85.5950    4.4750   40.5150 O.3     6  SGN6       -0.3416
     82  N         91.7760   11.9590   36.3110 N.3     4  SGN4       -0.1775
     83  O3        94.4620   14.3800   42.2650 O.3     3  IDS3       -0.3863
     84  O4S      101.4960   21.5560   40.0390 O.2     2  SGN2       -0.3452
     85  C5        94.5940   16.1150   39.8130 C.3     3  IDS3        0.1863
     86  O6S      100.9350   20.5300   37.9530 O.3     2  SGN2       -0.2682
     87  O61       95.1530   17.7810   38.1870 O.3     3  IDS3       -0.4788
     88  O62       87.2150   11.3620   41.0130 O.3     5  IDS5       -0.4788
     89  S2        82.7500    4.3000   37.6500 S.3     6  SGN6       -0.0008
     90  H         87.6060   11.4730   37.9310 H       5  IDS5        0.0656
     91  H         94.5520   16.2010   43.2430 H       3  IDS3        0.0649
     92  H         87.4760    4.3430   43.7850 H       6  SGN6        0.1487
     93  H         97.0610   17.3980   42.4350 H       2  SGN2        0.0927
     94  H         89.1760   12.5740   36.4950 H       4  SGN4        0.0927
     95  H         89.8200   12.9810   40.1620 H       4  SGN4        0.0648
     96  H         84.7160    6.3240   37.9360 H       6  SGN6        0.0610
     97  H         85.8360    5.0190   37.6760 H       6  SGN6        0.0610
     98  H         88.1760    7.6500   36.3620 H       5  IDS5        0.0698
     99  H         86.0400    3.5410   42.2770 H       6  SGN6        0.0925
    100  H         87.9980    5.4860   39.3590 H       6  SGN6        0.0650
    101  H         97.8120   21.2720   41.6900 H       2  SGN2        0.0316
    102  H         96.5360   21.9330   40.7100 H       2  SGN2        0.0316
    103  H         95.3220   22.4440   42.7530 H       2  SGN2        0.2098
    104  H         91.9010   12.2380   39.0480 H       4  SGN4        0.0638
    105  H         96.1080   19.7920   39.7270 H       2  SGN2        0.0621
    106  H         89.1400    7.5940   40.7370 H       6  SGN6        0.2100
    107  H         92.2250   15.3590   42.6510 H       3  IDS3        0.0698
    108  H         88.1900    4.2770   41.3430 H       6  SGN6        0.0554
    109  H         85.2190    6.5210   40.1600 H       6  SGN6        0.0648
    110  H         89.1520   14.8950   41.3250 H       4  SGN4        0.0610
    111  H         87.8400   14.6150   40.2120 H       4  SGN4        0.0610
    112  H         89.3830    6.9790   38.5720 H       5  IDS5        0.0939
    113  H         86.3470   10.4710   36.4160 H       5  IDS5        0.2100
    114  H         96.1490   15.9730   41.2750 H       3  IDS3        0.0656
    115  H         88.6460   10.1620   35.9610 H       5  IDS5        0.0649
    116  H         98.4120   19.2220   38.6570 H       2  SGN2        0.0609
    117  H         97.6620   20.7680   38.3290 H       2  SGN2        0.0609
    118  H         85.3170    6.2740   42.2630 H       6  SGN6        0.2125
    119  H         91.2250   13.9300   36.6470 H       4  SGN4        0.0554
    120  H         91.0240   15.2260   38.8250 H       4  SGN4        0.0650
    121  H         91.3690   16.4890   40.4710 H       3  IDS3        0.0939
    122  H         86.9890    9.6150   39.2640 H       5  IDS5        0.0742
    123  H         87.1040    7.0700   41.6570 H       6  SGN6        0.0638
    124  H         97.3320   19.6370   43.4440 H       2  SGN2        0.0553
    125  H         93.2690   14.3610   37.7550 H       4  SGN4        0.2100
    126  H         95.0490   19.6920   44.4470 H       2  SGN2        0.1487
    127  H         94.9030   20.3900   41.8190 H       2  SGN2        0.0612
    128  H         92.1460   11.2410   36.9340 H       4  SGN4        0.1487
    129  H         94.1990   14.0390   41.3960 H       3  IDS3        0.2100
    130  H         94.6260   15.0520   39.6940 H       3  IDS3        0.0742
    131  H         94.4400   18.2840   38.5290 H       3  IDS3        0.2951
    132  H         86.3950   11.3460   40.5590 H       5  IDS5        0.2951
@<TRIPOS>BOND
     1     1    52    1
     2     1    71    1
     3     2    19    1
     4     2    58    1
     5     2    71    1
     6     2    90    1
     7     3    20    2
     8     4    78    1
     9     4    18    1
    10     4    53    1
    11     4    41    1
    12     5    15    1
    13     5    89    1
    14     6    56    1
    15     7    89    2
    16     8    39    1
    17     8    57    1
    18     8    83    1
    19     8    91    1
    20     9    63    1
    21     9    25    1
    22    10    22    2
    23    11    42    1
    24    11    56    1
    25    11    92    1
    26    12    76    1
    27    12    28    1
    28    12    51    1
    29    12    93    1
    30    13    66    1
    31    13    19    1
    32    13    48    1
    33    13    94    1
    34    14    67    1
    35    14    50    1
    36    14    48    1
    37    14    95    1
    38    15    43    1
    39    15    96    1
    40    15    97    1
    41    16    22    2
    42    17    52    1
    43    17    58    1
    44    17    30    1
    45    17    98    1
    46    20    85    1
    47    20    87    1
    48    21    42    1
    49    21    64    1
    50    21    81    1
    51    21    99    1
    52    22    33    1
    53    22    37    1
    54    23    71    1
    55    23    72    2
    56    23    88    1
    57    24    40    1
    58    24    75    1
    59    24    43    1
    60    24   100    1
    61    25    84    2
    62    25    69    2
    63    25    86    1
    64    26    60    1
    65    27    54    2
    66    28    57    1
    67    29    70    1
    68    29    67    1
    69    30    54    1
    70    31    79    1
    71    31    35    1
    72    31   101    1
    73    31   102    1
    74    32    79    1
    75    32   103    1
    76    33    50    1
    77    34    66    1
    78    34    67    1
    79    34    77    1
    80    34   104    1
    81    35    63    1
    82    35    51    1
    83    35   105    1
    84    36    75    1
    85    36   106    1
    86    38    61    2
    87    39    70    1
    88    39    44    1
    89    39   107    1
    90    40    52    1
    91    42    75    1
    92    42   108    1
    93    43    81    1
    94    43   109    1
    95    44    61    1
    96    45    60    1
    97    46    89    2
    98    47    54    2
    99    49    54    1
   100    50   110    1
   101    50   111    1
   102    52   112    1
   103    55    58    1
   104    55   113    1
   105    56    59    1
   106    56    65    1
   107    57    85    1
   108    57   114    1
   109    58   115    1
   110    60    82    1
   111    60    68    1
   112    61    74    2
   113    61    73    1
   114    62    70    1
   115    62    85    1
   116    63   116    1
   117    63   117    1
   118    64   118    1
   119    66    82    1
   120    66   119    1
   121    67   120    1
   122    70   121    1
   123    71   122    1
   124    75   123    1
   125    76    79    1
   126    76    78    1
   127    76   124    1
   128    77   125    1
   129    78   126    1
   130    79   127    1
   131    80    89    1
   132    82   128    1
   133    83   129    1
   134    85   130    1
   135    87   131    1
   136    88   132    1
