@<TRIPOS>MOLECULE
1XT3_LIGAND_1_uncharged.pdb
 153 158 0 0 0
SMALL
GASTEIGER

@<TRIPOS>ATOM
      1  C1        17.7860   33.3350   35.7010 C.3    61  IDS61       0.2339
      2  O4S       21.7060   37.2490   34.3440 O.2    62  SGN62      -0.3452
      3  O1S       26.1410   39.9700   44.9650 O.3    64  SGN64      -0.0534
      4  O3S       24.3570   46.4780   49.2440 O.2    65  IDS65      -0.3452
      5  O4        21.9050   39.6970   47.9460 O.3    65  IDS65      -0.3406
      6  O61       22.0070   38.0330   40.8390 O.2    63  IDS63      -0.2480
      7  C5        21.2650   36.9410   47.5680 C.3    64  SGN64       0.1158
      8  C1        18.2950   36.3510   40.1060 C.3    62  SGN62       0.1795
      9  O5        22.4800   37.4180   48.2170 O.3    64  SGN64      -0.3413
     10  O62       19.0300   39.6760   49.9490 O.2    65  IDS65      -0.2480
     11  C2        18.9290   35.1820   43.9350 C.3    63  IDS63       0.1644
     12  S2        23.3160   34.4440   48.5060 S.3    64  SGN64      -0.0008
     13  C1        20.7630   43.3630   49.5800 C.3    65  IDS65       0.1915
     14  C2        18.5110   32.3420   34.7990 C.3    61  IDS61       0.1768
     15  O2        18.7420   34.1340   43.0210 O.3    63  IDS63      -0.2435
     16  S2        21.9930   36.3960   35.4490 S.3    62  SGN62      -0.0008
     17  O6        20.5440   35.5610   35.9550 O.3    62  SGN62      -0.2520
     18  C1        21.8070   42.3460   55.0630 C.3    66  SGN66       0.1762
     19  S1        15.6680   34.9870   42.0680 S.3    62  SGN62       0.0767
     20  C1        22.9300   38.7170   47.7770 C.3    64  SGN64       0.1795
     21  O3        20.0170   31.2130   36.1600 O.3    61  IDS61      -0.3848
     22  C2        23.2410   38.6580   46.3040 C.3    64  SGN64       0.1081
     23  O1S       15.2970   32.9180   34.1620 O.2    61  IDS61      -0.3452
     24  S         24.2650   45.1420   48.6620 S.3    65  IDS65      -0.0004
     25  C3        22.0060   38.2370   45.5690 C.3    64  SGN64       0.1055
     26  O3        18.6220   37.4720   44.2810 O.3    63  IDS63      -0.3863
     27  O2S       18.4470   32.2230   44.7440 O.2    63  IDS63      -0.3452
     28  O62       23.0090   36.2390   41.5190 O.3    63  IDS63      -0.4788
     29  O6        21.6490   46.1090   53.0090 O.3    66  SGN66      -0.2520
     30  O2        22.5600   44.6380   48.5160 O.3    65  IDS65      -0.2435
     31  S         19.2180   32.5120   43.5420 S.3    63  IDS63      -0.0004
     32  S1        24.7700   40.1650   44.5210 S.3    64  SGN64       0.0767
     33  C2        22.2460   43.3840   49.1020 C.3    65  IDS65       0.1644
     34  O5        22.1500   43.6820   54.5650 O.3    66  SGN66      -0.3416
     35  O4S       23.0090   33.3200   47.6600 O.2    64  SGN64      -0.3452
     36  C3        18.5090   36.4980   43.2670 C.3    63  IDS63       0.1174
     37  C5        21.1180   40.9210   49.7670 C.3    65  IDS65       0.1863
     38  O1S       18.8780   31.6320   42.4390 O.2    63  IDS63      -0.3452
     39  O3        16.9840   33.0200   39.0450 O.3    62  SGN62      -0.3874
     40  O3S       15.5480   36.4170   42.2330 O.3    62  SGN62      -0.0534
     41  O6        21.7740   35.1250   49.0880 O.3    64  SGN64      -0.2520
     42  C4        17.7260   30.5670   36.3900 C.2    61  IDS61      -0.0041
     43  C6        22.7140   45.1880   52.6760 C.3    66  SGN66       0.1035
     44  C6        22.0680   37.0340   41.5540 C.2    63  IDS63       0.3367
     45  O6S       19.8640   47.9120   52.3140 O.2    66  SGN66      -0.3452
     46  O61       20.9490   38.5390   49.8640 O.3    65  IDS65      -0.4788
     47  O4        20.3960   36.4040   45.3890 O.3    64  SGN64      -0.3401
     48  O2S       24.8980   44.1870   49.5500 O.3    65  IDS65      -0.2682
     49  O4        18.6680   33.6700   36.7920 O.3    62  SGN62      -0.3309
     50  C6        19.5670   36.3920   36.5560 C.3    62  SGN62       0.1035
     51  C3        20.6540   41.8880   52.8720 C.3    66  SGN66       0.1055
     52  O4        19.3760   35.9510   40.9580 O.3    63  IDS63      -0.3406
     53  C4        21.0800   43.2850   52.3900 C.3    66  SGN66       0.1176
     54  O3S       16.7850   34.3380   32.9050 O.2    61  IDS61      -0.3452
     55  N         17.1610   34.5830   41.2590 N.3    62  SGN62      -0.1775
     56  C4        19.5000   36.8300   42.0690 C.3    63  IDS63       0.1267
     57  O5        20.1800   42.0380   49.6850 O.3    65  IDS65      -0.3314
     58  O3S       24.4740   39.2360   43.4450 O.3    64  SGN64      -0.0534
     59  C2        20.4850   41.9190   54.3930 C.3    66  SGN66       0.1079
     60  O2S       19.9910   40.8440   57.4230 O.3    66  SGN66      -0.0534
     61  C3        18.8250   31.0130   35.4860 C.3    61  IDS61       0.1114
     62  O1S       15.6560   34.2940   43.3390 O.3    62  SGN62      -0.0534
     63  O5        21.2490   35.5000   43.2950 O.3    63  IDS63      -0.3314
     64  C4        18.1440   34.6510   37.6840 C.3    62  SGN62       0.1186
     65  O2S       15.7160   32.4100   31.9740 O.3    61  IDS61      -0.2682
     66  O1S       24.9110   45.1090   47.3510 O.2    65  IDS65      -0.3452
     67  S1        20.5030   39.9180   56.4320 S.3    66  SGN66       0.0767
     68  O4S       20.1330   46.1010   50.8140 O.2    66  SGN66      -0.3452
     69  C6        15.3570   30.7770   37.3270 C.2    61  IDS61       0.3717
     70  O2S       24.5640   41.5100   44.0590 O.3    64  SGN64      -0.0534
     71  O5S       24.0850   34.0170   49.6440 O.2    64  SGN64      -0.3452
     72  O5        18.7130   36.7750   38.7690 O.3    62  SGN62      -0.3413
     73  O5        16.5980   32.6890   36.2280 O.2    61  IDS61      -0.4538
     74  O3        23.7520   42.4090   47.5910 O.3    65  IDS65      -0.3863
     75  C4        21.5880   36.8290   46.0670 C.3    64  SGN64       0.1176
     76  C5        22.3520   43.7560   53.1120 C.3    66  SGN66       0.1158
     77  O5S       22.9180   35.3670   35.0590 O.2    62  SGN62      -0.3452
     78  C6        20.8510   35.5910   48.1140 C.3    64  SGN64       0.1035
     79  O2        17.6980   32.0040   33.6620 O.3    61  IDS61      -0.2421
     80  C1        20.3920   35.2880   44.4460 C.3    63  IDS63       0.1915
     81  O2S       14.6130   34.5530   41.1980 O.3    62  SGN62      -0.0534
     82  O4        21.2850   43.3310   50.9000 O.3    66  SGN66      -0.3401
     83  O1        22.8090   41.3720   54.7110 O.3    66  SGN66      -0.3656
     84  C6        20.2930   39.6100   49.8600 C.2    65  IDS65       0.3367
     85  C5        16.6540   31.3670   36.6490 C.2    61  IDS61       0.2060
     86  O62       14.3450   31.5040   37.4820 O.3    61  IDS61      -0.4750
     87  C5        20.9660   36.7720   42.5770 C.3    63  IDS63       0.1863
     88  O1S       19.8780   38.6090   56.5520 O.3    66  SGN66      -0.0534
     89  O5S       21.8410   47.7830   50.9980 O.3    66  SGN66      -0.2682
     90  O6S       22.5580   37.1120   36.5900 O.3    62  SGN62      -0.2682
     91  C5        19.2120   35.7420   37.8720 C.3    62  SGN62       0.1158
     92  C3        17.9260   34.0580   39.0850 C.3    62  SGN62       0.1055
     93  O6S       24.0780   35.4250   47.7610 O.3    64  SGN64      -0.2682
     94  O3S       20.6020   32.3770   43.8930 O.3    63  IDS63      -0.2682
     95  N         23.6340   39.9750   45.8670 N.3    64  SGN64      -0.1775
     96  C4        22.1600   40.9460   48.5940 C.3    65  IDS65       0.1267
     97  C2        17.3480   35.1670   39.9690 C.3    62  SGN62       0.1081
     98  O3        22.3420   38.2140   44.2290 O.3    64  SGN64      -0.3874
     99  O3S       21.9380   39.7310   56.5830 O.3    66  SGN66      -0.0534
    100  S         16.3040   32.9840   33.1360 S.3    61  IDS61      -0.0003
    101  S2        20.8280   47.0120   51.7130 S.3    66  SGN66      -0.0008
    102  O3        19.3870   41.5590   52.3040 O.3    66  SGN66      -0.3874
    103  C3        22.4310   42.3590   48.0290 C.3    65  IDS65       0.1174
    104  N         20.0720   40.5790   54.8330 N.3    66  SGN66      -0.1775
    105  O61       15.3290   29.5950   37.6720 O.2    61  IDS61      -0.2417
    106  H         17.5120   34.2180   35.1620 H      61  IDS61       0.1085
    107  H         20.4520   37.6140   47.7470 H      64  SGN64       0.0648
    108  H         17.8320   37.2020   40.5600 H      62  SGN62       0.0927
    109  H         18.3230   34.9790   44.7930 H      63  IDS63       0.0698
    110  H         20.0970   44.0320   49.0760 H      65  IDS65       0.0939
    111  H         19.4210   32.8350   34.5260 H      61  IDS61       0.0712
    112  H         21.7320   42.3900   56.1290 H      66  SGN66       0.0925
    113  H         23.7900   38.9810   48.3560 H      64  SGN64       0.0927
    114  H         20.6990   31.5010   35.5330 H      61  IDS61       0.2103
    115  H         24.0290   37.9600   46.1130 H      64  SGN64       0.0554
    116  H         21.1830   38.9010   45.7320 H      64  SGN64       0.0638
    117  H         18.0130   37.2580   45.0050 H      63  IDS63       0.2100
    118  H         23.0120   35.4910   42.0830 H      63  IDS63       0.2951
    119  H         22.8700   43.1940   49.9500 H      65  IDS65       0.0698
    120  H         17.5200   36.4560   42.8610 H      63  IDS63       0.0649
    121  H         21.7210   40.9970   50.6470 H      65  IDS65       0.0742
    122  H         17.3210   32.2990   38.4910 H      62  SGN62       0.2100
    123  H         17.7790   29.6340   36.8280 H      61  IDS61       0.0637
    124  H         23.6100   45.4920   53.1760 H      66  SGN66       0.0610
    125  H         22.8590   45.1980   51.6160 H      66  SGN66       0.0610
    126  H         21.8830   38.5620   49.7950 H      65  IDS65       0.2951
    127  H         18.7020   36.4590   35.9300 H      62  SGN62       0.0610
    128  H         19.9360   37.3860   36.6990 H      62  SGN62       0.0610
    129  H         21.3940   41.1720   52.5820 H      66  SGN66       0.0638
    130  H         20.2780   43.9510   52.6310 H      66  SGN66       0.0650
    131  H         17.1940   33.5690   41.1510 H      62  SGN62       0.1487
    132  H         19.2350   37.8100   41.7300 H      63  IDS63       0.0656
    133  H         19.7380   42.6320   54.6760 H      66  SGN66       0.0554
    134  H         18.9150   30.2210   34.7730 H      61  IDS61       0.0668
    135  H         17.2240   35.0160   37.2760 H      62  SGN62       0.0651
    136  H         23.9410   43.2900   47.2320 H      65  IDS65       0.2100
    137  H         22.3760   36.1290   45.8810 H      64  SGN64       0.0650
    138  H         23.1680   43.1160   52.8480 H      66  SGN66       0.0648
    139  H         20.8080   34.8870   47.3090 H      64  SGN64       0.0610
    140  H         19.8920   35.6930   48.5780 H      64  SGN64       0.0610
    141  H         20.7550   34.4120   44.9420 H      63  IDS63       0.0939
    142  H         22.8870   41.3230   53.7450 H      66  SGN66       0.2125
    143  H         14.3690   32.4030   37.2190 H      61  IDS61       0.2955
    144  H         21.0070   37.6080   43.2430 H      63  IDS63       0.0742
    145  H         20.0830   35.2750   38.2820 H      62  SGN62       0.0648
    146  H         18.8550   33.6790   39.4570 H      62  SGN62       0.0638
    147  H         24.0530   40.4390   46.6730 H      64  SGN64       0.1487
    148  H         23.2230   40.9070   48.7070 H      65  IDS65       0.0656
    149  H         16.4430   35.5370   39.5350 H      62  SGN62       0.0554
    150  H         23.0890   37.6100   44.0930 H      64  SGN64       0.2100
    151  H         18.7300   42.2180   52.5770 H      66  SGN66       0.2100
    152  H         21.7530   42.5600   47.2260 H      65  IDS65       0.0649
    153  H         20.4500   39.9270   54.1460 H      66  SGN66       0.1487
@<TRIPOS>BOND
     1     1    14    1
     2     1    73    1
     3     1    49    1
     4     1   106    1
     5     2    16    2
     6     3    32    1
     7     4    24    2
     8     5    20    1
     9     5    96    1
    10     6    44    2
    11     7    75    1
    12     7    78    1
    13     7     9    1
    14     7   107    1
    15     8    97    1
    16     8    72    1
    17     8    52    1
    18     8   108    1
    19     9    20    1
    20    10    84    2
    21    11    80    1
    22    11    36    1
    23    11    15    1
    24    11   109    1
    25    12    41    1
    26    12    35    2
    27    12    71    2
    28    12    93    1
    29    13    33    1
    30    13    57    1
    31    13    82    1
    32    13   110    1
    33    14    61    1
    34    14    79    1
    35    14   111    1
    36    15    31    1
    37    16    17    1
    38    16    77    2
    39    16    90    1
    40    17    50    1
    41    18    59    1
    42    18    83    1
    43    18    34    1
    44    18   112    1
    45    19    55    1
    46    19    62    1
    47    19    81    1
    48    19    40    1
    49    20    22    1
    50    20   113    1
    51    21    61    1
    52    21   114    1
    53    22    25    1
    54    22    95    1
    55    22   115    1
    56    23   100    2
    57    24    30    1
    58    24    66    2
    59    24    48    1
    60    25    75    1
    61    25    98    1
    62    25   116    1
    63    26    36    1
    64    26   117    1
    65    27    31    2
    66    28    44    1
    67    28   118    1
    68    29    43    1
    69    29   101    1
    70    30    33    1
    71    31    38    2
    72    31    94    1
    73    32    95    1
    74    32    70    1
    75    32    58    1
    76    33   103    1
    77    33   119    1
    78    34    76    1
    79    36    56    1
    80    36   120    1
    81    37    96    1
    82    37    84    1
    83    37    57    1
    84    37   121    1
    85    39    92    1
    86    39   122    1
    87    41    78    1
    88    42    61    1
    89    42    85    2
    90    42   123    1
    91    43    76    1
    92    43   124    1
    93    43   125    1
    94    44    87    1
    95    45   101    2
    96    46    84    1
    97    46   126    1
    98    47    80    1
    99    47    75    1
   100    49    64    1
   101    50    91    1
   102    50   127    1
   103    50   128    1
   104    51    59    1
   105    51    53    1
   106    51   102    1
   107    51   129    1
   108    52    56    1
   109    53    76    1
   110    53    82    1
   111    53   130    1
   112    54   100    2
   113    55    97    1
   114    55   131    1
   115    56    87    1
   116    56   132    1
   117    59   104    1
   118    59   133    1
   119    60    67    1
   120    61   134    1
   121    63    80    1
   122    63    87    1
   123    64    92    1
   124    64    91    1
   125    64   135    1
   126    65   100    1
   127    67   104    1
   128    67    88    1
   129    67    99    1
   130    68   101    2
   131    69    85    1
   132    69   105    2
   133    69    86    1
   134    72    91    1
   135    73    85    1
   136    74   103    1
   137    74   136    1
   138    75   137    1
   139    76   138    1
   140    78   139    1
   141    78   140    1
   142    79   100    1
   143    80   141    1
   144    83   142    1
   145    86   143    1
   146    87   144    1
   147    89   101    1
   148    91   145    1
   149    92    97    1
   150    92   146    1
   151    95   147    1
   152    96   103    1
   153    96   148    1
   154    97   149    1
   155    98   150    1
   156   102   151    1
   157   103   152    1
   158   104   153    1
