@<TRIPOS>MOLECULE
1XT3_LIGAND_1.pdb
 168 173 0 0 0
SMALL
GASTEIGER

@<TRIPOS>ATOM
      1  C1        17.7860   33.3350   35.7010 C.3    61  IDS61       0.2340
      2  O4S       21.7060   37.2490   34.3440 O.2    62  SGN62      -0.1181
      3  O1S       26.1410   39.9700   44.9650 O.3    64  SGN64      -0.2626
      4  O3S       24.3570   46.4780   49.2440 O.2    65  IDS65      -0.1181
      5  O4        21.9050   39.6970   47.9460 O.3    65  IDS65      -0.3406
      6  O61       22.0070   38.0330   40.8390 O.2    63  IDS63      -0.2480
      7  C5        21.2650   36.9410   47.5680 C.3    64  SGN64       0.1159
      8  C1        18.2950   36.3510   40.1060 C.3    62  SGN62       0.1795
      9  O5        22.4800   37.4180   48.2170 O.3    64  SGN64      -0.3413
     10  O62       19.0300   39.6760   49.9490 O.2    65  IDS65      -0.2480
     11  C2        18.9290   35.1820   43.9350 C.3    63  IDS63       0.1684
     12  S2        23.3160   34.4440   48.5060 S.O2   64  SGN64       0.2076
     13  C1        20.7630   43.3630   49.5800 C.3    65  IDS65       0.1916
     14  C2        18.5110   32.3420   34.7990 C.3    61  IDS61       0.1808
     15  O2        18.7420   34.1340   43.0210 O.3    63  IDS63      -0.2047
     16  S2        21.9930   36.3960   35.4490 S.O2   62  SGN62       0.2076
     17  O6        20.5440   35.5610   35.9550 O.3    62  SGN62      -0.2131
     18  C1        21.8070   42.3460   55.0630 C.3    66  SGN66       0.1762
     19  S1        15.6680   34.9870   42.0680 S.3    62  SGN62      -0.0198
     20  C1        22.9300   38.7170   47.7770 C.3    64  SGN64       0.1795
     21  O3        20.0170   31.2130   36.1600 O.3    61  IDS61      -0.3848
     22  C2        23.2410   38.6580   46.3040 C.3    64  SGN64       0.1078
     23  O1S       15.2970   32.9180   34.1620 O.2    61  IDS61      -0.1181
     24  S         24.2650   45.1420   48.6620 S.O2   65  IDS65       0.2080
     25  C3        22.0060   38.2370   45.5690 C.3    64  SGN64       0.1055
     26  O3        18.6220   37.4720   44.2810 O.3    63  IDS63      -0.3863
     27  O2S       18.4470   32.2230   44.7440 O.2    63  IDS63      -0.1181
     28  O62       23.0090   36.2390   41.5190 O.3    63  IDS63      -0.4788
     29  O6        21.6490   46.1090   53.0090 O.3    66  SGN66      -0.2131
     30  O2        22.5600   44.6380   48.5160 O.3    65  IDS65      -0.2047
     31  S         19.2180   32.5120   43.5420 S.O2   63  IDS63       0.2080
     32  S1        24.7700   40.1650   44.5210 S.3    64  SGN64      -0.0198
     33  C2        22.2460   43.3840   49.1020 C.3    65  IDS65       0.1684
     34  O5        22.1500   43.6820   54.5650 O.3    66  SGN66      -0.3416
     35  O4S       23.0090   33.3200   47.6600 O.2    64  SGN64      -0.1181
     36  C3        18.5090   36.4980   43.2670 C.3    63  IDS63       0.1176
     37  C5        21.1180   40.9210   49.7670 C.3    65  IDS65       0.1863
     38  O1S       18.8780   31.6320   42.4390 O.2    63  IDS63      -0.1181
     39  O3        16.9840   33.0200   39.0450 O.3    62  SGN62      -0.3874
     40  O3S       15.5480   36.4170   42.2330 O.3    62  SGN62      -0.2626
     41  O6        21.7740   35.1250   49.0880 O.3    64  SGN64      -0.2131
     42  C4        17.7260   30.5670   36.3900 C.2    61  IDS61      -0.0041
     43  C6        22.7140   45.1880   52.6760 C.3    66  SGN66       0.1076
     44  C6        22.0680   37.0340   41.5540 C.2    63  IDS63       0.3367
     45  O6S       19.8640   47.9120   52.3140 O.2    66  SGN66      -0.1181
     46  O61       20.9490   38.5390   49.8640 O.3    65  IDS65      -0.4788
     47  O4        20.3960   36.4040   45.3890 O.3    64  SGN64      -0.3401
     48  O2S       24.8980   44.1870   49.5500 O.3    65  IDS65      -0.2311
     49  O4        18.6680   33.6700   36.7920 O.3    62  SGN62      -0.3308
     50  C6        19.5670   36.3920   36.5560 C.3    62  SGN62       0.1076
     51  C3        20.6540   41.8880   52.8720 C.3    66  SGN66       0.1055
     52  O4        19.3760   35.9510   40.9580 O.3    63  IDS63      -0.3406
     53  C4        21.0800   43.2850   52.3900 C.3    66  SGN66       0.1176
     54  O3S       16.7850   34.3380   32.9050 O.2    61  IDS61      -0.1181
     55  N         17.1610   34.5830   41.2590 N.3    62  SGN62      -0.1845
     56  C4        19.5000   36.8300   42.0690 C.3    63  IDS63       0.1267
     57  O5        20.1800   42.0380   49.6850 O.3    65  IDS65      -0.3314
     58  O3S       24.4740   39.2360   43.4450 O.3    64  SGN64      -0.2626
     59  C2        20.4850   41.9190   54.3930 C.3    66  SGN66       0.1076
     60  O2S       19.9910   40.8440   57.4230 O.3    66  SGN66      -0.2626
     61  C3        18.8250   31.0130   35.4860 C.3    61  IDS61       0.1116
     62  O1S       15.6560   34.2940   43.3390 O.3    62  SGN62      -0.2626
     63  O5        21.2490   35.5000   43.2950 O.3    63  IDS63      -0.3314
     64  C4        18.1440   34.6510   37.6840 C.3    62  SGN62       0.1186
     65  O2S       15.7160   32.4100   31.9740 O.3    61  IDS61      -0.2311
     66  O1S       24.9110   45.1090   47.3510 O.2    65  IDS65      -0.1181
     67  S1        20.5030   39.9180   56.4320 S.3    66  SGN66      -0.0198
     68  O4S       20.1330   46.1010   50.8140 O.2    66  SGN66      -0.1181
     69  C6        15.3570   30.7770   37.3270 C.2    61  IDS61       0.3717
     70  O2S       24.5640   41.5100   44.0590 O.3    64  SGN64      -0.2626
     71  O5S       24.0850   34.0170   49.6440 O.2    64  SGN64      -0.1181
     72  O5        18.7130   36.7750   38.7690 O.3    62  SGN62      -0.3413
     73  O5        16.5980   32.6890   36.2280 O.2    61  IDS61      -0.4538
     74  O3        23.7520   42.4090   47.5910 O.3    65  IDS65      -0.3863
     75  C4        21.5880   36.8290   46.0670 C.3    64  SGN64       0.1176
     76  C5        22.3520   43.7560   53.1120 C.3    66  SGN66       0.1159
     77  O5S       22.9180   35.3670   35.0590 O.2    62  SGN62      -0.1181
     78  C6        20.8510   35.5910   48.1140 C.3    64  SGN64       0.1076
     79  O2        17.6980   32.0040   33.6620 O.3    61  IDS61      -0.2032
     80  C1        20.3920   35.2880   44.4460 C.3    63  IDS63       0.1916
     81  O2S       14.6130   34.5530   41.1980 O.3    62  SGN62      -0.2626
     82  O4        21.2850   43.3310   50.9000 O.3    66  SGN66      -0.3401
     83  O1        22.8090   41.3720   54.7110 O.3    66  SGN66      -0.3656
     84  C6        20.2930   39.6100   49.8600 C.2    65  IDS65       0.3367
     85  C5        16.6540   31.3670   36.6490 C.2    61  IDS61       0.2060
     86  O62       14.3450   31.5040   37.4820 O.3    61  IDS61      -0.4750
     87  C5        20.9660   36.7720   42.5770 C.3    63  IDS63       0.1863
     88  O1S       19.8780   38.6090   56.5520 O.3    66  SGN66      -0.2626
     89  O5S       21.8410   47.7830   50.9980 O.3    66  SGN66      -0.2311
     90  O6S       22.5580   37.1120   36.5900 O.3    62  SGN62      -0.2311
     91  C5        19.2120   35.7420   37.8720 C.3    62  SGN62       0.1159
     92  C3        17.9260   34.0580   39.0850 C.3    62  SGN62       0.1055
     93  O6S       24.0780   35.4250   47.7610 O.3    64  SGN64      -0.2311
     94  O3S       20.6020   32.3770   43.8930 O.3    63  IDS63      -0.2311
     95  N         23.6340   39.9750   45.8670 N.3    64  SGN64      -0.1845
     96  C4        22.1600   40.9460   48.5940 C.3    65  IDS65       0.1267
     97  C2        17.3480   35.1670   39.9690 C.3    62  SGN62       0.1078
     98  O3        22.3420   38.2140   44.2290 O.3    64  SGN64      -0.3874
     99  O3S       21.9380   39.7310   56.5830 O.3    66  SGN66      -0.2626
    100  S         16.3040   32.9840   33.1360 S.O2   61  IDS61       0.2080
    101  S2        20.8280   47.0120   51.7130 S.O2   66  SGN66       0.2076
    102  O3        19.3870   41.5590   52.3040 O.3    66  SGN66      -0.3874
    103  C3        22.4310   42.3590   48.0290 C.3    65  IDS65       0.1176
    104  N         20.0720   40.5790   54.8330 N.3    66  SGN66      -0.1845
    105  O61       15.3290   29.5950   37.6720 O.2    61  IDS61      -0.2417
    106 H          17.5119   34.2176   35.1617 H      61  IDS61       0.1085
    107 H          26.3394   40.5903   45.6838 H      64  SGN64       0.2439
    108 H          20.4523   37.6137   47.7466 H      64  SGN64       0.0648
    109 H          17.8316   37.2020   40.5598 H      62  SGN62       0.0927
    110 H          18.3231   34.9793   44.7933 H      63  IDS63       0.0699
    111 H          20.0973   44.0318   49.0756 H      65  IDS65       0.0939
    112 H          19.4205   32.8354   34.5265 H      61  IDS61       0.0714
    113 H          21.7315   42.3897   56.1294 H      66  SGN66       0.0925
    114 H          23.7899   38.9812   48.3563 H      64  SGN64       0.0927
    115 H          20.6987   31.5010   35.5329 H      61  IDS61       0.2103
    116 H          24.0295   37.9603   46.1129 H      64  SGN64       0.0554
    117 H          21.1826   38.9006   45.7319 H      64  SGN64       0.0638
    118 H          18.0128   37.2575   45.0047 H      63  IDS63       0.2100
    119 H          23.0117   35.4911   42.0834 H      63  IDS63       0.2951
    120 H          22.8705   43.1940   49.9498 H      65  IDS65       0.0699
    121 H          17.5198   36.4558   42.8614 H      63  IDS63       0.0649
    122 H          21.7213   40.9971   50.6474 H      65  IDS65       0.0742
    123 H          17.3210   32.2988   38.4908 H      62  SGN62       0.2100
    124 H          16.2525   36.7351   42.8190 H      62  SGN62       0.2439
    125 H          17.7785   29.6340   36.8280 H      61  IDS61       0.0637
    126 H          23.6099   45.4915   53.1762 H      66  SGN66       0.0611
    127 H          22.8587   45.1984   51.6159 H      66  SGN66       0.0611
    128 H          21.8832   38.5615   49.7947 H      65  IDS65       0.2951
    129 H          24.4641   44.2149   50.4171 H      65  IDS65       0.2469
    130 H          18.7016   36.4592   35.9303 H      62  SGN62       0.0611
    131 H          19.9358   37.3861   36.6994 H      62  SGN62       0.0611
    132 H          21.3942   41.1717   52.5824 H      66  SGN66       0.0638
    133 H          20.2784   43.9514   52.6314 H      66  SGN66       0.0650
    134 H          17.1939   33.5693   41.1511 H      62  SGN62       0.1485
    135 H          19.2352   37.8096   41.7296 H      63  IDS63       0.0656
    136 H          24.6125   38.3274   43.7550 H      64  SGN64       0.2439
    137 H          19.7384   42.6315   54.6756 H      66  SGN66       0.0554
    138 H          19.0347   40.9515   57.3015 H      66  SGN66       0.2439
    139 H          18.9148   30.2207   34.7725 H      61  IDS61       0.0668
    140 H          15.7382   33.3394   43.1876 H      62  SGN62       0.2439
    141 H          17.2244   35.0155   37.2760 H      62  SGN62       0.0651
    142 H          14.9592   32.9487   31.6948 H      61  IDS61       0.2469
    143 H          24.7613   42.1321   44.7766 H      64  SGN64       0.2439
    144 H          23.9406   43.2903   47.2324 H      65  IDS65       0.2100
    145 H          22.3758   36.1291   45.8813 H      64  SGN64       0.0650
    146 H          23.1678   43.1159   52.8481 H      66  SGN66       0.0648
    147 H          20.8082   34.8873   47.3091 H      64  SGN64       0.0611
    148 H          19.8922   35.6930   48.5778 H      64  SGN64       0.0611
    149 H          20.7545   34.4121   44.9424 H      63  IDS63       0.0939
    150 H          14.6725   33.5931   41.0715 H      62  SGN62       0.2439
    151 H          22.8871   41.3229   53.7454 H      66  SGN66       0.2125
    152 H          14.3691   32.4029   37.2186 H      61  IDS61       0.2955
    153 H          21.0074   37.6081   43.2434 H      63  IDS63       0.0742
    154 H          18.9171   38.6995   56.4555 H      66  SGN66       0.2439
    155 H          22.2888   48.3809   51.6168 H      66  SGN66       0.2469
    156 H          21.9463   37.8118   36.8677 H      62  SGN62       0.2469
    157 H          20.0827   35.2745   38.2822 H      62  SGN62       0.0648
    158 H          18.8552   33.6793   39.4566 H      62  SGN62       0.0638
    159 H          23.5644   35.7171   46.9917 H      64  SGN64       0.2469
    160 H          20.8081   32.9724   44.6306 H      63  IDS63       0.2469
    161 H          24.0534   40.4387   46.6729 H      64  SGN64       0.1485
    162 H          23.2232   40.9065   48.7074 H      65  IDS65       0.0656
    163 H          16.4426   35.5373   39.5354 H      62  SGN62       0.0554
    164 H          23.0887   37.6099   44.0932 H      64  SGN64       0.2100
    165 H          22.3855   40.5883   56.5078 H      66  SGN66       0.2439
    166 H          18.7295   42.2179   52.5768 H      66  SGN66       0.2100
    167 H          21.7527   42.5603   47.2264 H      65  IDS65       0.0649
    168 H          20.4500   39.9267   54.1460 H      66  SGN66       0.1485
@<TRIPOS>BOND
     1     1    14    1
     2     1    73    1
     3     1    49    1
     4     2    16    2
     5     3    32    1
     6     4    24    2
     7     5    20    1
     8     5    96    1
     9     6    44    2
    10     7    75    1
    11     7    78    1
    12     7     9    1
    13     8    97    1
    14     8    72    1
    15     8    52    1
    16     9    20    1
    17    10    84    2
    18    11    80    1
    19    11    36    1
    20    11    15    1
    21    12    41    1
    22    12    35    2
    23    12    71    2
    24    12    93    1
    25    13    33    1
    26    13    57    1
    27    13    82    1
    28    14    61    1
    29    14    79    1
    30    15    31    1
    31    16    17    1
    32    16    77    2
    33    16    90    1
    34    17    50    1
    35    18    59    1
    36    18    83    1
    37    18    34    1
    38    19    55    1
    39    19    62    1
    40    19    81    1
    41    19    40    1
    42    20    22    1
    43    21    61    1
    44    22    25    1
    45    22    95    1
    46    23   100    2
    47    24    30    1
    48    24    66    2
    49    24    48    1
    50    25    75    1
    51    25    98    1
    52    26    36    1
    53    27    31    2
    54    28    44    1
    55    29    43    1
    56    29   101    1
    57    30    33    1
    58    31    38    2
    59    31    94    1
    60    32    95    1
    61    32    70    1
    62    32    58    1
    63    33   103    1
    64    34    76    1
    65    36    56    1
    66    37    96    1
    67    37    84    1
    68    37    57    1
    69    39    92    1
    70    41    78    1
    71    42    61    1
    72    42    85    2
    73    43    76    1
    74    44    87    1
    75    45   101    2
    76    46    84    1
    77    47    80    1
    78    47    75    1
    79    49    64    1
    80    50    91    1
    81    51    59    1
    82    51    53    1
    83    51   102    1
    84    52    56    1
    85    53    76    1
    86    53    82    1
    87    54   100    2
    88    55    97    1
    89    56    87    1
    90    59   104    1
    91    60    67    1
    92    63    80    1
    93    63    87    1
    94    64    92    1
    95    64    91    1
    96    65   100    1
    97    67   104    1
    98    67    88    1
    99    67    99    1
   100    68   101    2
   101    69    85    1
   102    69   105    2
   103    69    86    1
   104    72    91    1
   105    73    85    1
   106    74   103    1
   107    79   100    1
   108    89   101    1
   109    92    97    1
   110    96   103    1
   111     1   106    1
   112     3   107    1
   113     7   108    1
   114     8   109    1
   115    11   110    1
   116    13   111    1
   117    14   112    1
   118    18   113    1
   119    20   114    1
   120    21   115    1
   121    22   116    1
   122    25   117    1
   123    26   118    1
   124    28   119    1
   125    33   120    1
   126    36   121    1
   127    37   122    1
   128    39   123    1
   129    40   124    1
   130    42   125    1
   131    43   126    1
   132    43   127    1
   133    46   128    1
   134    48   129    1
   135    50   130    1
   136    50   131    1
   137    51   132    1
   138    53   133    1
   139    55   134    1
   140    56   135    1
   141    58   136    1
   142    59   137    1
   143    60   138    1
   144    61   139    1
   145    62   140    1
   146    64   141    1
   147    65   142    1
   148    70   143    1
   149    74   144    1
   150    75   145    1
   151    76   146    1
   152    78   147    1
   153    78   148    1
   154    80   149    1
   155    81   150    1
   156    83   151    1
   157    86   152    1
   158    87   153    1
   159    88   154    1
   160    89   155    1
   161    90   156    1
   162    91   157    1
   163    92   158    1
   164    93   159    1
   165    94   160    1
   166    95   161    1
   167    96   162    1
   168    97   163    1
   169    98   164    1
   170    99   165    1
   171   102   166    1
   172   103   167    1
   173   104   168    1
