@<TRIPOS>MOLECULE
1ZBA_LIGAND_1.pdb
 91 93 0 0 0
SMALL
GASTEIGER

@<TRIPOS>ATOM
      1  C1        29.3460   24.9020  147.7500 C.3   501  SGN501      0.1795
      2  C5        32.2100   23.4430  146.5310 C.3   502  IDS502      0.1863
      3  O4S       32.1140   27.4240  152.2630 O.2   501  SGN501     -0.1181
      4  O5        30.1750   25.8480  148.4330 O.3   501  SGN501     -0.3414
      5  O6        31.8230   27.3670  149.6180 O.3   501  SGN501     -0.2131
      6  O3S       25.0110   25.3200  148.0830 O.3   501  SGN501     -0.2626
      7  O1S       25.2960   22.9610  147.6520 O.3   501  SGN501     -0.2626
      8  O4S       29.7630   22.0750  141.9140 O.2   503  SGN503     -0.1181
      9  C3        30.0990   22.1750  145.7930 C.3   502  IDS502      0.1176
     10  S1        25.4580   24.3200  147.0870 S.3   501  SGN501     -0.0198
     11  C4        30.6880   23.2510  146.6830 C.3   502  IDS502      0.1267
     12  O2S       40.1020   21.6210  143.3270 O.3   503  SGN503     -0.2626
     13  N         37.7470   20.4380  142.9960 N.3   503  SGN503     -0.1845
     14  O3        28.9270   21.6580  146.3880 O.3   502  IDS502     -0.3863
     15  C2        36.3470   20.5300  142.6440 C.3   503  SGN503      0.1076
     16  C6        32.4760   24.9230  146.2950 C.2   502  IDS502      0.3367
     17  O5        32.8120   22.8220  145.3780 O.3   502  IDS502     -0.3314
     18  O1S       39.0180   21.8710  141.1750 O.3   503  SGN503     -0.2626
     19  O6        32.1930   21.0490  141.7930 O.3   503  SGN503     -0.2131
     20  O6S       31.1940   22.7940  140.0910 O.2   503  SGN503     -0.1181
     21  C1        35.9380   19.3130  141.8290 C.3   503  SGN503      0.1762
     22  O2S       32.0560   18.4150  146.4980 O.2   502  IDS502     -0.1181
     23  O61       33.1870   25.5500  147.1060 O.2   502  IDS502     -0.2480
     24  S2        31.9090   28.3250  151.1050 S.O2  501  SGN501      0.2076
     25  S         30.9630   18.3400  145.5000 S.O2  502  IDS502      0.2080
     26  C3        35.5130   20.6230  143.9080 C.3   503  SGN503      0.1055
     27  C2        27.9590   25.4940  147.4940 C.3   501  SGN501      0.1078
     28  S2        30.7840   21.6520  140.9330 S.O2  503  SGN503      0.2076
     29  O3S       38.1610   23.0540  143.1000 O.3   503  SGN503     -0.2626
     30  O1        36.2150   18.1200  142.5560 O.3   503  SGN503     -0.3656
     31  N         27.1630   24.5860  146.6880 N.3   501  SGN501     -0.1845
     32  O62       32.0520   25.4350  145.2320 O.3   502  IDS502     -0.4788
     33  C5        33.6830   19.4500  142.6690 C.3   503  SGN503      0.1159
     34  O5S       30.6440   29.0750  151.2810 O.2   501  SGN501     -0.1181
     35  O3        35.8320   21.8000  144.6180 O.3   503  SGN503     -0.3874
     36  O1        29.9560   24.4680  146.5360 O.3   501  SGN501     -0.3406
     37  O1S       29.7710   17.7080  146.1110 O.2   502  IDS502     -0.1181
     38  O4        29.1460   29.0070  146.8990 O.3   501  SGN501     -0.3865
     39  O4        33.2790   20.5950  144.7410 O.3   503  SGN503     -0.3401
     40  C1        32.2810   21.6060  144.8370 C.3   502  IDS502      0.1916
     41  O6S       33.0400   29.2790  151.0170 O.3   501  SGN501     -0.2311
     42  O3S       31.4150   17.5360  144.3440 O.3   502  IDS502     -0.2311
     43  C6        32.2750   19.6740  142.1500 C.3   503  SGN503      0.1076
     44  O5S       30.2330   20.5730  140.0960 O.3   503  SGN503     -0.2311
     45  O2        30.5470   19.9700  144.9590 O.3   502  IDS502     -0.2047
     46  O3        26.7630   27.4470  146.7380 O.3   501  SGN501     -0.3874
     47  C4        28.9920   27.7650  147.5880 C.3   501  SGN501      0.1111
     48  C6        31.3670   27.9750  148.4110 C.3   501  SGN501      0.1076
     49  S1        38.8040   21.8040  142.6360 S.3   503  SGN503     -0.0198
     50  O5        34.5470   19.4040  141.5320 O.3   503  SGN503     -0.3416
     51  C3        28.0460   26.8570  146.8120 C.3   501  SGN501      0.1051
     52  C4        34.0440   20.6450  143.5390 C.3   503  SGN503      0.1176
     53  O2S       24.6380   24.4510  145.8600 O.3   501  SGN501     -0.2626
     54  C5        30.3450   27.0780  147.7210 C.3   501  SGN501      0.1155
     55  C2        31.1210   21.0760  145.6480 C.3   502  IDS502      0.1684
     56 H          29.2302   24.0420  148.3760 H     501  SGN501      0.0927
     57 H          32.6198   23.0103  147.4197 H     502  IDS502      0.0742
     58 H          25.5463   25.2365  148.8876 H     501  SGN501      0.2439
     59 H          25.8339   22.8784  148.4549 H     501  SGN501      0.2439
     60 H          29.8503   22.5796  144.8342 H     502  IDS502      0.0649
     61 H          30.5781   22.9098  147.6912 H     502  IDS502      0.0656
     62 H          40.5191   20.8010  143.0196 H     503  SGN503      0.2439
     63 H          38.1268   19.6277  142.5066 H     503  SGN503      0.1485
     64 H          29.1423   21.2885  147.2586 H     502  IDS502      0.2100
     65 H          36.1839   21.4071  142.0533 H     503  SGN503      0.0554
     66 H          39.4393   21.0515  140.8720 H     503  SGN503      0.2439
     67 H          36.4961   19.2841  140.9165 H     503  SGN503      0.0925
     68 H          35.7220   19.7748  144.5259 H     503  SGN503      0.0638
     69 H          27.4860   25.6302  148.4441 H     501  SGN501      0.0554
     70 H          38.0210   23.0090  144.0588 H     503  SGN503      0.2439
     71 H          35.7177   18.1260  143.3888 H     503  SGN503      0.2125
     72 H          27.1910   24.9384  145.7312 H     501  SGN501      0.1485
     73 H          31.5201   24.9304  144.6485 H     502  IDS502      0.2951
     74 H          33.7692   18.5470  143.2365 H     503  SGN503      0.0648
     75 H          35.6447   22.5732  144.0630 H     503  SGN503      0.2100
     76 H          28.2821   29.4405  146.8168 H     501  SGN501      0.2100
     77 H          31.9291   21.8516  143.8568 H     502  IDS502      0.0939
     78 H          33.8687   28.7883  150.9017 H     501  SGN501      0.2469
     79 H          32.1955   17.9523  143.9460 H     502  IDS502      0.2469
     80 H          32.0936   19.0579  141.2942 H     503  SGN503      0.0611
     81 H          31.5440   19.4207  142.8892 H     503  SGN503      0.0611
     82 H          29.9677   19.8297  140.6600 H     503  SGN503      0.2469
     83 H          26.1669   26.8635  146.2429 H     501  SGN501      0.2100
     84 H          28.5885   27.9560  148.5604 H     501  SGN501      0.0646
     85 H          32.1996   28.1297  147.7570 H     501  SGN501      0.0611
     86 H          30.9064   28.9120  148.6452 H     501  SGN501      0.0611
     87 H          28.4232   26.7249  145.8194 H     501  SGN501      0.0638
     88 H          33.8344   21.5381  142.9882 H     503  SGN503      0.0650
     89 H          23.7041   24.3054  146.0781 H     501  SGN501      0.2439
     90 H          30.7270   26.8739  146.7426 H     501  SGN501      0.0648
     91 H          31.4492   20.7589  146.6158 H     502  IDS502      0.0699
@<TRIPOS>BOND
     1     1    27    1
     2     1    36    1
     3     1     4    1
     4     2    11    1
     5     2    16    1
     6     2    17    1
     7     3    24    2
     8     4    54    1
     9     5    48    1
    10     5    24    1
    11     6    10    1
    12     7    10    1
    13     8    28    2
    14     9    55    1
    15     9    11    1
    16     9    14    1
    17    10    31    1
    18    10    53    1
    19    11    36    1
    20    12    49    1
    21    13    15    1
    22    13    49    1
    23    15    21    1
    24    15    26    1
    25    16    23    2
    26    16    32    1
    27    17    40    1
    28    18    49    1
    29    19    43    1
    30    19    28    1
    31    20    28    2
    32    21    30    1
    33    21    50    1
    34    22    25    2
    35    24    34    2
    36    24    41    1
    37    25    45    1
    38    25    37    2
    39    25    42    1
    40    26    52    1
    41    26    35    1
    42    27    51    1
    43    27    31    1
    44    28    44    1
    45    29    49    1
    46    33    52    1
    47    33    43    1
    48    33    50    1
    49    38    47    1
    50    39    40    1
    51    39    52    1
    52    40    55    1
    53    45    55    1
    54    46    51    1
    55    47    51    1
    56    47    54    1
    57    48    54    1
    58     1    56    1
    59     2    57    1
    60     6    58    1
    61     7    59    1
    62     9    60    1
    63    11    61    1
    64    12    62    1
    65    13    63    1
    66    14    64    1
    67    15    65    1
    68    18    66    1
    69    21    67    1
    70    26    68    1
    71    27    69    1
    72    29    70    1
    73    30    71    1
    74    31    72    1
    75    32    73    1
    76    33    74    1
    77    35    75    1
    78    38    76    1
    79    40    77    1
    80    41    78    1
    81    42    79    1
    82    43    80    1
    83    43    81    1
    84    44    82    1
    85    46    83    1
    86    47    84    1
    87    48    85    1
    88    48    86    1
    89    51    87    1
    90    52    88    1
    91    53    89    1
    92    54    90    1
    93    55    91    1
