@<TRIPOS>MOLECULE
1ZBA_LIGAND_1_uncharged.pdb
 82 84 0 0 0
SMALL
GASTEIGER

@<TRIPOS>ATOM
      1  C1        29.3460   24.9020  147.7500 C.3   501  SGN501      0.1795
      2  C5        32.2100   23.4430  146.5310 C.3   502  IDS502      0.1863
      3  O4S       32.1140   27.4240  152.2630 O.2   501  SGN501     -0.3452
      4  O5        30.1750   25.8480  148.4330 O.3   501  SGN501     -0.3414
      5  O6        31.8230   27.3670  149.6180 O.3   501  SGN501     -0.2520
      6  O3S       25.0110   25.3200  148.0830 O.3   501  SGN501     -0.0534
      7  O1S       25.2960   22.9610  147.6520 O.3   501  SGN501     -0.0534
      8  O4S       29.7630   22.0750  141.9140 O.2   503  SGN503     -0.3452
      9  C3        30.0990   22.1750  145.7930 C.3   502  IDS502      0.1174
     10  S1        25.4580   24.3200  147.0870 S.3   501  SGN501      0.0767
     11  C4        30.6880   23.2510  146.6830 C.3   502  IDS502      0.1267
     12  O2S       40.1020   21.6210  143.3270 O.3   503  SGN503     -0.0534
     13  N         37.7470   20.4380  142.9960 N.3   503  SGN503     -0.1775
     14  O3        28.9270   21.6580  146.3880 O.3   502  IDS502     -0.3863
     15  C2        36.3470   20.5300  142.6440 C.3   503  SGN503      0.1079
     16  C6        32.4760   24.9230  146.2950 C.2   502  IDS502      0.3367
     17  O5        32.8120   22.8220  145.3780 O.3   502  IDS502     -0.3314
     18  O1S       39.0180   21.8710  141.1750 O.3   503  SGN503     -0.0534
     19  O6        32.1930   21.0490  141.7930 O.3   503  SGN503     -0.2520
     20  O6S       31.1940   22.7940  140.0910 O.2   503  SGN503     -0.3452
     21  C1        35.9380   19.3130  141.8290 C.3   503  SGN503      0.1762
     22  O2S       32.0560   18.4150  146.4980 O.2   502  IDS502     -0.3452
     23  O61       33.1870   25.5500  147.1060 O.2   502  IDS502     -0.2480
     24  S2        31.9090   28.3250  151.1050 S.3   501  SGN501     -0.0008
     25  S         30.9630   18.3400  145.5000 S.3   502  IDS502     -0.0004
     26  C3        35.5130   20.6230  143.9080 C.3   503  SGN503      0.1055
     27  C2        27.9590   25.4940  147.4940 C.3   501  SGN501      0.1080
     28  S2        30.7840   21.6520  140.9330 S.3   503  SGN503     -0.0008
     29  O3S       38.1610   23.0540  143.1000 O.3   503  SGN503     -0.0534
     30  O1        36.2150   18.1200  142.5560 O.3   503  SGN503     -0.3656
     31  N         27.1630   24.5860  146.6880 N.3   501  SGN501     -0.1775
     32  O62       32.0520   25.4350  145.2320 O.3   502  IDS502     -0.4788
     33  C5        33.6830   19.4500  142.6690 C.3   503  SGN503      0.1158
     34  O5S       30.6440   29.0750  151.2810 O.2   501  SGN501     -0.3452
     35  O3        35.8320   21.8000  144.6180 O.3   503  SGN503     -0.3874
     36  O1        29.9560   24.4680  146.5360 O.3   501  SGN501     -0.3406
     37  O1S       29.7710   17.7080  146.1110 O.2   502  IDS502     -0.3452
     38  O4        29.1460   29.0070  146.8990 O.3   501  SGN501     -0.3865
     39  O4        33.2790   20.5950  144.7410 O.3   503  SGN503     -0.3401
     40  C1        32.2810   21.6060  144.8370 C.3   502  IDS502      0.1915
     41  O6S       33.0400   29.2790  151.0170 O.3   501  SGN501     -0.2682
     42  O3S       31.4150   17.5360  144.3440 O.3   502  IDS502     -0.2682
     43  C6        32.2750   19.6740  142.1500 C.3   503  SGN503      0.1035
     44  O5S       30.2330   20.5730  140.0960 O.3   503  SGN503     -0.2682
     45  O2        30.5470   19.9700  144.9590 O.3   502  IDS502     -0.2435
     46  O3        26.7630   27.4470  146.7380 O.3   501  SGN501     -0.3874
     47  C4        28.9920   27.7650  147.5880 C.3   501  SGN501      0.1111
     48  C6        31.3670   27.9750  148.4110 C.3   501  SGN501      0.1035
     49  S1        38.8040   21.8040  142.6360 S.3   503  SGN503      0.0767
     50  O5        34.5470   19.4040  141.5320 O.3   503  SGN503     -0.3416
     51  C3        28.0460   26.8570  146.8120 C.3   501  SGN501      0.1051
     52  C4        34.0440   20.6450  143.5390 C.3   503  SGN503      0.1176
     53  O2S       24.6380   24.4510  145.8600 O.3   501  SGN501     -0.0534
     54  C5        30.3450   27.0780  147.7210 C.3   501  SGN501      0.1154
     55  C2        31.1210   21.0760  145.6480 C.3   502  IDS502      0.1644
     56  H         29.2300   24.0420  148.3760 H     501  SGN501      0.0927
     57  H         32.6200   23.0100  147.4200 H     502  IDS502      0.0742
     58  H         29.8500   22.5800  144.8340 H     502  IDS502      0.0649
     59  H         30.5780   22.9100  147.6910 H     502  IDS502      0.0656
     60  H         38.1270   19.6280  142.5070 H     503  SGN503      0.1487
     61  H         29.1420   21.2880  147.2590 H     502  IDS502      0.2100
     62  H         36.1840   21.4070  142.0530 H     503  SGN503      0.0554
     63  H         36.4960   19.2840  140.9170 H     503  SGN503      0.0925
     64  H         35.7220   19.7750  144.5260 H     503  SGN503      0.0638
     65  H         27.4860   25.6300  148.4440 H     501  SGN501      0.0554
     66  H         35.7180   18.1260  143.3890 H     503  SGN503      0.2125
     67  H         27.1910   24.9380  145.7310 H     501  SGN501      0.1487
     68  H         31.5200   24.9300  144.6490 H     502  IDS502      0.2951
     69  H         33.7690   18.5470  143.2370 H     503  SGN503      0.0648
     70  H         35.6450   22.5730  144.0630 H     503  SGN503      0.2100
     71  H         28.2820   29.4410  146.8170 H     501  SGN501      0.2100
     72  H         31.9290   21.8520  143.8570 H     502  IDS502      0.0939
     73  H         32.0940   19.0580  141.2940 H     503  SGN503      0.0610
     74  H         31.5440   19.4210  142.8890 H     503  SGN503      0.0610
     75  H         26.1670   26.8630  146.2430 H     501  SGN501      0.2100
     76  H         28.5880   27.9560  148.5600 H     501  SGN501      0.0646
     77  H         32.2000   28.1300  147.7570 H     501  SGN501      0.0610
     78  H         30.9060   28.9120  148.6450 H     501  SGN501      0.0610
     79  H         28.4230   26.7250  145.8190 H     501  SGN501      0.0638
     80  H         33.8340   21.5380  142.9880 H     503  SGN503      0.0650
     81  H         30.7270   26.8740  146.7430 H     501  SGN501      0.0648
     82  H         31.4490   20.7590  146.6160 H     502  IDS502      0.0698
@<TRIPOS>BOND
     1     1    27    1
     2     1    36    1
     3     1     4    1
     4     1    56    1
     5     2    11    1
     6     2    16    1
     7     2    17    1
     8     2    57    1
     9     3    24    2
    10     4    54    1
    11     5    48    1
    12     5    24    1
    13     6    10    1
    14     7    10    1
    15     8    28    2
    16     9    55    1
    17     9    11    1
    18     9    14    1
    19     9    58    1
    20    10    31    1
    21    10    53    1
    22    11    36    1
    23    11    59    1
    24    12    49    1
    25    13    15    1
    26    13    49    1
    27    13    60    1
    28    14    61    1
    29    15    21    1
    30    15    26    1
    31    15    62    1
    32    16    23    2
    33    16    32    1
    34    17    40    1
    35    18    49    1
    36    19    43    1
    37    19    28    1
    38    20    28    2
    39    21    30    1
    40    21    50    1
    41    21    63    1
    42    22    25    2
    43    24    34    2
    44    24    41    1
    45    25    45    1
    46    25    37    2
    47    25    42    1
    48    26    52    1
    49    26    35    1
    50    26    64    1
    51    27    51    1
    52    27    31    1
    53    27    65    1
    54    28    44    1
    55    29    49    1
    56    30    66    1
    57    31    67    1
    58    32    68    1
    59    33    52    1
    60    33    43    1
    61    33    50    1
    62    33    69    1
    63    35    70    1
    64    38    47    1
    65    38    71    1
    66    39    40    1
    67    39    52    1
    68    40    55    1
    69    40    72    1
    70    43    73    1
    71    43    74    1
    72    45    55    1
    73    46    51    1
    74    46    75    1
    75    47    51    1
    76    47    54    1
    77    47    76    1
    78    48    54    1
    79    48    77    1
    80    48    78    1
    81    51    79    1
    82    52    80    1
    83    54    81    1
    84    55    82    1
