@<TRIPOS>MOLECULE
2AXM_LIGAND_1_uncharged.pdb
 156 161 0 0 0
SMALL
GASTEIGER

@<TRIPOS>ATOM
      1  S        -23.9450   57.0590   17.3080 S.3   304  IDS304     -0.0004
      2  O2       -22.9420   56.2600   16.4690 O.3   304  IDS304     -0.2435
      3  C6       -13.7200   59.7340   16.8680 C.2   306  IDS306      0.3367
      4  O4       -24.3010   55.2640   13.3260 O.3   303  SGN303     -0.3401
      5  C5       -21.4920   55.6190   13.2430 C.3   304  IDS304      0.1863
      6  O6S      -15.5870   53.7950   11.5410 O.2   305  SGN305     -0.3452
      7  S1       -19.5110   55.4490   19.0730 S.3   305  SGN305      0.0767
      8  O4       -30.5360   51.0130   11.1590 O.3   301  SGN301     -0.3401
      9  O2S      -32.4840   51.8010   17.6400 O.3   301  SGN301     -0.0534
     10  C3       -24.7160   55.0680   10.9800 C.3   303  SGN303      0.1055
     11  O4S      -28.3480   46.8290    9.9810 O.2   301  SGN301     -0.3452
     12  O5S      -27.5270   46.6200   12.2350 O.2   301  SGN301     -0.3452
     13  C3       -31.8820   51.0940   13.1810 C.3   301  SGN301      0.1055
     14  S2       -26.6430   59.4640   13.8420 S.3   303  SGN303     -0.0008
     15  S        -26.7430   50.6690    8.5690 S.3   302  IDS302     -0.0004
     16  S1       -25.9560   55.2610    7.2040 S.3   303  SGN303      0.0767
     17  O62      -13.3340   60.8320   17.2520 O.3   306  IDS306     -0.4788
     18  C6       -16.8620   55.7320   13.0250 C.3   305  SGN305      0.1035
     19  O3S      -26.9480   49.3740    9.1100 O.3   302  IDS302     -0.2682
     20  O61      -13.5590   58.7680   17.6080 O.2   306  IDS306     -0.2480
     21  C5       -14.4120   59.5630   15.5140 C.3   306  IDS306      0.1859
     22  S        -13.3710   58.8080   10.7030 S.3   306  IDS306     -0.0004
     23  O5       -32.0940   48.2520   13.0190 O.3   301  SGN301     -0.3416
     24  O4       -27.5070   54.2940   10.4600 O.3   302  IDS302     -0.3406
     25  C5       -17.6890   56.1880   14.1730 C.3   305  SGN305      0.1158
     26  C4       -14.0980   60.6250   14.4350 C.3   306  IDS306      0.1202
     27  O3       -30.6720   53.1670    9.1530 O.3   302  IDS302     -0.3863
     28  O6S      -29.2970   45.1700   11.4470 O.3   301  SGN301     -0.2682
     29  O61      -20.1860   57.3800   12.3000 O.2   304  IDS304     -0.2480
     30  O1S      -14.6370   59.1820   10.0940 O.2   306  IDS306     -0.3452
     31  O3S      -34.0590   49.9910   17.4600 O.3   301  SGN301     -0.0534
     32  C3       -18.0410   57.5120   16.1200 C.3   305  SGN305      0.1055
     33  C5       -29.4180   53.6050   11.6760 C.3   302  IDS302      0.1863
     34  O3       -16.0000   60.8820   12.8870 O.3   306  IDS306     -0.3863
     35  C2       -32.2390   50.2270   14.3900 C.3   301  SGN301      0.1079
     36  C5       -31.6280   48.9810   11.8810 C.3   301  SGN301      0.1158
     37  O2       -13.7710   58.3320   12.1170 O.3   306  IDS306     -0.2435
     38  O1S      -27.1880   55.9690    7.4080 O.3   303  SGN303     -0.0534
     39  O6       -29.7450   47.5030   11.8290 O.3   301  SGN301     -0.2520
     40  O1S      -25.2250   56.7630   16.7770 O.2   304  IDS304     -0.3452
     41  O4       -12.6900   60.6740   14.2710 O.3   306  IDS306     -0.3860
     42  C1       -19.1010   55.3260   15.8240 C.3   305  SGN305      0.1795
     43  C1       -23.5910   56.0930   14.1860 C.3   304  IDS304      0.1915
     44  N        -19.4270   56.5410   17.8790 N.3   305  SGN305     -0.1775
     45  C2       -25.5790   55.5840    9.8360 C.3   303  SGN303      0.1081
     46  S2       -14.7910   54.2640   12.6700 S.3   305  SGN305     -0.0008
     47  O61      -28.7000   54.2640   13.8730 O.2   302  IDS302     -0.2480
     48  O3S      -12.7220   57.6760   10.0750 O.3   306  IDS306     -0.2682
     49  C2       -23.2550   55.3320   15.4690 C.3   304  IDS304      0.1644
     50  O3       -31.2670   52.2760   13.6200 O.3   301  SGN301     -0.3874
     51  O1       -34.1320   49.4140   13.1210 O.3   301  SGN301     -0.3656
     52  O5S      -25.6070   60.3340   13.3810 O.2   303  SGN303     -0.3452
     53  O62      -19.8040   55.5140   11.5830 O.3   304  IDS304     -0.4788
     54  O5       -14.1670   58.2770   15.0120 O.3   306  IDS306     -0.3314
     55  O2S      -12.4850   59.9410   10.8890 O.2   306  IDS306     -0.3452
     56  C3       -22.0630   54.3580   15.3600 C.3   304  IDS304      0.1174
     57  C4       -20.9530   54.9430   14.5110 C.3   304  IDS304      0.1267
     58  C1       -27.0320   55.6100   10.2590 C.3   303  SGN303      0.1795
     59  S1       -32.8190   50.5590   16.9880 S.3   301  SGN301      0.0767
     60  C2       -18.4890   56.2770   16.8280 C.3   305  SGN305      0.1081
     61  C6       -30.8110   47.9920   11.0520 C.3   301  SGN301      0.1035
     62  C5       -26.4320   55.9360   12.5370 C.3   303  SGN303      0.1158
     63  C1       -29.1810   51.3230   11.0550 C.3   302  IDS302      0.1915
     64  N        -25.4180   54.7450    8.6610 N.3   303  SGN303     -0.1775
     65  N        -33.0660   50.9200   15.3890 N.3   301  SGN301     -0.1775
     66  C6       -20.4380   56.2050   12.3180 C.2   304  IDS304      0.3367
     67  C3       -29.2760   53.1440    9.2940 C.3   302  IDS302      0.1174
     68  C4       -16.9720   57.0450   15.1650 C.3   305  SGN305      0.1176
     69  O6       -26.1660   58.0580   13.4480 O.3   303  SGN303     -0.2520
     70  C4       -30.8870   50.2800   12.3110 C.3   301  SGN301      0.1176
     71  O4S      -26.7750   59.4810   15.2590 O.2   303  SGN303     -0.3452
     72  C6       -29.2840   54.5850   12.8390 C.2   302  IDS302      0.3367
     73  O5       -27.1550   56.4160   11.4100 O.3   303  SGN303     -0.3413
     74  O3S      -23.5660   58.3970   17.1090 O.3   304  IDS304     -0.2682
     75  C1       -15.1070   57.9120   14.0290 C.3   306  IDS306      0.1915
     76  O6S      -27.9010   59.6410   13.2050 O.3   303  SGN303     -0.2682
     77  C4       -24.9350   55.8980   12.2500 C.3   303  SGN303      0.1176
     78  O3       -22.4910   53.1540   14.7660 O.3   304  IDS304     -0.3863
     79  O5       -22.4140   56.5950   13.5770 O.3   304  IDS304     -0.3314
     80  O6       -15.7690   55.0660   13.5390 O.3   305  SGN305     -0.2520
     81  O5       -28.8030   52.3570   11.9470 O.3   302  IDS302     -0.3314
     82  O3       -17.5120   58.4000   17.0460 O.3   305  SGN305     -0.3874
     83  O1S      -18.4800   54.4800   18.9010 O.3   305  SGN305     -0.0534
     84  O3S      -26.1230   54.0600    6.4410 O.3   303  SGN303     -0.0534
     85  O5S      -14.3120   53.1760   13.4900 O.3   305  SGN305     -0.2682
     86  O3S      -20.7910   54.8560   18.9790 O.3   305  SGN305     -0.0534
     87  O1S      -27.3360   50.8270    7.2830 O.2   302  IDS302     -0.3452
     88  O5       -18.1580   55.0520   14.8090 O.3   305  SGN305     -0.3413
     89  O4S      -13.7690   55.2180   12.3180 O.2   305  SGN305     -0.3452
     90  O62      -29.7670   55.7220   12.7560 O.3   302  IDS302     -0.4788
     91  C3       -14.7230   60.2760   13.0350 C.3   306  IDS306      0.1170
     92  S2       -28.6620   46.4670   11.3490 S.3   301  SGN301     -0.0008
     93  O2S      -23.8040   56.6420   18.6650 O.2   304  IDS304     -0.3452
     94  C2       -28.8600   51.7160    9.6440 C.3   302  IDS302      0.1644
     95  O2S      -24.9390   56.1250    6.6820 O.3   303  SGN303     -0.0534
     96  O4       -20.2710   55.8690   15.2930 O.3   304  IDS304     -0.3406
     97  O4       -16.4210   58.1150   14.4880 O.3   305  SGN305     -0.3401
     98  C6       -26.7930   56.8390   13.7030 C.3   303  SGN303      0.1035
     99  C2       -14.9060   58.7580   12.7910 C.3   306  IDS306      0.1644
    100  O2S      -19.3140   56.2160   20.2320 O.3   305  SGN305     -0.0534
    101  C4       -28.9060   54.1400   10.3760 C.3   302  IDS302      0.1267
    102  C1       -32.9580   48.9970   13.8590 C.3   301  SGN301      0.1762
    103  O3       -23.3570   55.1650   10.6110 O.3   303  SGN303     -0.3874
    104  O2S      -25.3800   51.0740    8.6300 O.2   302  IDS302     -0.3452
    105  O1S      -31.7370   49.5990   17.0590 O.3   301  SGN301     -0.0534
    106  O2       -27.5060   51.6370    9.4760 O.3   302  IDS302     -0.2435
    107  H        -21.9510   54.8290   12.6860 H     304  IDS304      0.0742
    108  H        -24.9870   54.0520   11.1770 H     303  SGN303      0.0638
    109  H        -32.7560   51.3510   12.6200 H     301  SGN301      0.0638
    110  H        -13.4450   61.5850   16.7060 H     306  IDS306      0.2951
    111  H        -16.5390   56.5750   12.4500 H     305  SGN305      0.0610
    112  H        -17.4280   55.0880   12.3850 H     305  SGN305      0.0610
    113  H        -15.4500   59.7110   15.7280 H     306  IDS306      0.0741
    114  H        -18.4680   56.8070   13.7800 H     305  SGN305      0.0648
    115  H        -14.5150   61.5540   14.7630 H     306  IDS306      0.0652
    116  H        -30.9380   52.5370    8.4650 H     302  IDS302      0.2100
    117  H        -18.8360   58.0130   15.6080 H     305  SGN305      0.0638
    118  H        -30.4730   53.4600   11.5730 H     302  IDS302      0.0742
    119  H        -15.9230   61.8380   13.0340 H     306  IDS306      0.2100
    120  H        -31.3380   49.9700   14.9070 H     301  SGN301      0.0554
    121  H        -32.4210   49.3550   11.2680 H     301  SGN301      0.0648
    122  H        -12.3690   59.8080   13.9740 H     306  IDS306      0.2100
    123  H        -19.3610   54.4080   16.3090 H     305  SGN305      0.0927
    124  H        -24.2050   56.9360   14.4250 H     304  IDS304      0.0939
    125  H        -19.1780   57.4370   18.2970 H     305  SGN305      0.1487
    126  H        -25.2670   56.5780    9.5910 H     303  SGN303      0.0554
    127  H        -24.1200   54.7420   15.6870 H     304  IDS304      0.0698
    128  H        -30.4720   52.0560   14.1300 H     301  SGN301      0.2100
    129  H        -34.5940   48.6320   12.7800 H     301  SGN301      0.2125
    130  H        -19.9600   54.5900   11.5570 H     304  IDS304      0.2951
    131  H        -21.6910   54.1810   16.3480 H     304  IDS304      0.0649
    132  H        -20.3040   54.1560   14.1870 H     304  IDS304      0.0656
    133  H        -27.6400   56.0370    9.4890 H     303  SGN303      0.0927
    134  H        -17.6270   55.8420   17.2880 H     305  SGN305      0.0554
    135  H        -30.4240   48.4860   10.1850 H     301  SGN301      0.0610
    136  H        -31.4350   47.1780   10.7470 H     301  SGN301      0.0610
    137  H        -26.6940   54.9260   12.7740 H     303  SGN303      0.0648
    138  H        -28.6240   50.4500   11.3240 H     302  IDS302      0.0939
    139  H        -24.4180   54.5690    8.5600 H     303  SGN303      0.1487
    140  H        -34.0410   50.7070   15.1770 H     301  SGN301      0.1487
    141  H        -28.7660   53.4230    8.3960 H     302  IDS302      0.0649
    142  H        -16.1860   56.5360   15.6830 H     305  SGN305      0.0650
    143  H        -29.9940   50.0640   12.8590 H     301  SGN301      0.0650
    144  H        -14.9630   56.8750   13.8070 H     306  IDS306      0.0939
    145  H        -24.5420   56.8850   12.1200 H     303  SGN303      0.0650
    146  H        -22.8240   53.3350   13.8730 H     304  IDS304      0.2100
    147  H        -16.7860   57.9720   17.5270 H     305  SGN305      0.2100
    148  H        -30.2150   55.9850   11.9760 H     302  IDS302      0.2951
    149  H        -14.0200   60.6530   12.3220 H     306  IDS306      0.0649
    150  H        -29.4050   51.0510    9.0070 H     302  IDS302      0.0698
    151  H        -26.4370   56.4220   14.6220 H     303  SGN303      0.0610
    152  H        -27.8520   56.9540   13.7990 H     303  SGN303      0.0610
    153  H        -15.8130   58.6290   12.2380 H     306  IDS306      0.0698
    154  H        -29.3340   55.0940   10.1490 H     302  IDS302      0.0656
    155  H        -33.2540   48.3760   14.6780 H     301  SGN301      0.0925
    156  H        -23.1340   56.0930   10.4380 H     303  SGN303      0.2100
@<TRIPOS>BOND
     1     1     2    1
     2     1    40    2
     3     1    93    2
     4     1    74    1
     5     2    49    1
     6     3    21    1
     7     3    20    2
     8     3    17    1
     9     4    77    1
    10     4    43    1
    11     5    57    1
    12     5    66    1
    13     5    79    1
    14     5   107    1
    15     6    46    2
    16     7    44    1
    17     7    83    1
    18     7   100    1
    19     7    86    1
    20     8    70    1
    21     8    63    1
    22     9    59    1
    23    10    45    1
    24    10    77    1
    25    10   103    1
    26    10   108    1
    27    11    92    2
    28    12    92    2
    29    13    35    1
    30    13    70    1
    31    13    50    1
    32    13   109    1
    33    14    69    1
    34    14    71    2
    35    14    52    2
    36    14    76    1
    37    15   106    1
    38    15    87    2
    39    15   104    2
    40    15    19    1
    41    16    64    1
    42    16    38    1
    43    16    95    1
    44    16    84    1
    45    17   110    1
    46    18    25    1
    47    18    80    1
    48    18   111    1
    49    18   112    1
    50    21    26    1
    51    21    54    1
    52    21   113    1
    53    22    37    1
    54    22    30    2
    55    22    55    2
    56    22    48    1
    57    23   102    1
    58    23    36    1
    59    24   101    1
    60    24    58    1
    61    25    68    1
    62    25    88    1
    63    25   114    1
    64    26    91    1
    65    26    41    1
    66    26   115    1
    67    27    67    1
    68    27   116    1
    69    28    92    1
    70    29    66    2
    71    31    59    1
    72    32    60    1
    73    32    68    1
    74    32    82    1
    75    32   117    1
    76    33   101    1
    77    33    72    1
    78    33    81    1
    79    33   118    1
    80    34    91    1
    81    34   119    1
    82    35   102    1
    83    35    65    1
    84    35   120    1
    85    36    70    1
    86    36    61    1
    87    36   121    1
    88    37    99    1
    89    39    61    1
    90    39    92    1
    91    41   122    1
    92    42    96    1
    93    42    60    1
    94    42    88    1
    95    42   123    1
    96    43    49    1
    97    43    79    1
    98    43   124    1
    99    44    60    1
   100    44   125    1
   101    45    58    1
   102    45    64    1
   103    45   126    1
   104    46    80    1
   105    46    89    2
   106    46    85    1
   107    47    72    2
   108    49    56    1
   109    49   127    1
   110    50   128    1
   111    51   102    1
   112    51   129    1
   113    53    66    1
   114    53   130    1
   115    54    75    1
   116    56    57    1
   117    56    78    1
   118    56   131    1
   119    57    96    1
   120    57   132    1
   121    58    73    1
   122    58   133    1
   123    59    65    1
   124    59   105    1
   125    60   134    1
   126    61   135    1
   127    61   136    1
   128    62    77    1
   129    62    98    1
   130    62    73    1
   131    62   137    1
   132    63    94    1
   133    63    81    1
   134    63   138    1
   135    64   139    1
   136    65   140    1
   137    67    94    1
   138    67   101    1
   139    67   141    1
   140    68    97    1
   141    68   142    1
   142    69    98    1
   143    70   143    1
   144    72    90    1
   145    75    97    1
   146    75    99    1
   147    75   144    1
   148    77   145    1
   149    78   146    1
   150    82   147    1
   151    90   148    1
   152    91    99    1
   153    91   149    1
   154    94   106    1
   155    94   150    1
   156    98   151    1
   157    98   152    1
   158    99   153    1
   159   101   154    1
   160   102   155    1
   161   103   156    1
