@<TRIPOS>MOLECULE
2AXM_LIGAND_1.pdb
 171 176 0 0 0
SMALL
GASTEIGER

@<TRIPOS>ATOM
      1  S        -23.9450   57.0590   17.3080 S.O2  304  IDS304      0.2080
      2  O2       -22.9420   56.2600   16.4690 O.3   304  IDS304     -0.2047
      3  C6       -13.7200   59.7340   16.8680 C.2   306  IDS306      0.3367
      4  O4       -24.3010   55.2640   13.3260 O.3   303  SGN303     -0.3401
      5  C5       -21.4920   55.6190   13.2430 C.3   304  IDS304      0.1863
      6  O6S      -15.5870   53.7950   11.5410 O.2   305  SGN305     -0.1181
      7  S1       -19.5110   55.4490   19.0730 S.3   305  SGN305     -0.0198
      8  O4       -30.5360   51.0130   11.1590 O.3   301  SGN301     -0.3401
      9  O2S      -32.4840   51.8010   17.6400 O.3   301  SGN301     -0.2626
     10  C3       -24.7160   55.0680   10.9800 C.3   303  SGN303      0.1055
     11  O4S      -28.3480   46.8290    9.9810 O.2   301  SGN301     -0.1181
     12  O5S      -27.5270   46.6200   12.2350 O.2   301  SGN301     -0.1181
     13  C3       -31.8820   51.0940   13.1810 C.3   301  SGN301      0.1055
     14  S2       -26.6430   59.4640   13.8420 S.O2  303  SGN303      0.2076
     15  S        -26.7430   50.6690    8.5690 S.O2  302  IDS302      0.2080
     16  S1       -25.9560   55.2610    7.2040 S.3   303  SGN303     -0.0198
     17  O62      -13.3340   60.8320   17.2520 O.3   306  IDS306     -0.4788
     18  C6       -16.8620   55.7320   13.0250 C.3   305  SGN305      0.1076
     19  O3S      -26.9480   49.3740    9.1100 O.3   302  IDS302     -0.2311
     20  O61      -13.5590   58.7680   17.6080 O.2   306  IDS306     -0.2480
     21  C5       -14.4120   59.5630   15.5140 C.3   306  IDS306      0.1859
     22  S        -13.3710   58.8080   10.7030 S.O2  306  IDS306      0.2080
     23  O5       -32.0940   48.2520   13.0190 O.3   301  SGN301     -0.3416
     24  O4       -27.5070   54.2940   10.4600 O.3   302  IDS302     -0.3406
     25  C5       -17.6890   56.1880   14.1730 C.3   305  SGN305      0.1159
     26  C4       -14.0980   60.6250   14.4350 C.3   306  IDS306      0.1202
     27  O3       -30.6720   53.1670    9.1530 O.3   302  IDS302     -0.3863
     28  O6S      -29.2970   45.1700   11.4470 O.3   301  SGN301     -0.2311
     29  O61      -20.1860   57.3800   12.3000 O.2   304  IDS304     -0.2480
     30  O1S      -14.6370   59.1820   10.0940 O.2   306  IDS306     -0.1181
     31  O3S      -34.0590   49.9910   17.4600 O.3   301  SGN301     -0.2626
     32  C3       -18.0410   57.5120   16.1200 C.3   305  SGN305      0.1055
     33  C5       -29.4180   53.6050   11.6760 C.3   302  IDS302      0.1863
     34  O3       -16.0000   60.8820   12.8870 O.3   306  IDS306     -0.3863
     35  C2       -32.2390   50.2270   14.3900 C.3   301  SGN301      0.1076
     36  C5       -31.6280   48.9810   11.8810 C.3   301  SGN301      0.1159
     37  O2       -13.7710   58.3320   12.1170 O.3   306  IDS306     -0.2047
     38  O1S      -27.1880   55.9690    7.4080 O.3   303  SGN303     -0.2626
     39  O6       -29.7450   47.5030   11.8290 O.3   301  SGN301     -0.2131
     40  O1S      -25.2250   56.7630   16.7770 O.2   304  IDS304     -0.1181
     41  O4       -12.6900   60.6740   14.2710 O.3   306  IDS306     -0.3860
     42  C1       -19.1010   55.3260   15.8240 C.3   305  SGN305      0.1795
     43  C1       -23.5910   56.0930   14.1860 C.3   304  IDS304      0.1916
     44  N        -19.4270   56.5410   17.8790 N.3   305  SGN305     -0.1845
     45  C2       -25.5790   55.5840    9.8360 C.3   303  SGN303      0.1078
     46  S2       -14.7910   54.2640   12.6700 S.O2  305  SGN305      0.2076
     47  O61      -28.7000   54.2640   13.8730 O.2   302  IDS302     -0.2480
     48  O3S      -12.7220   57.6760   10.0750 O.3   306  IDS306     -0.2311
     49  C2       -23.2550   55.3320   15.4690 C.3   304  IDS304      0.1684
     50  O3       -31.2670   52.2760   13.6200 O.3   301  SGN301     -0.3874
     51  O1       -34.1320   49.4140   13.1210 O.3   301  SGN301     -0.3656
     52  O5S      -25.6070   60.3340   13.3810 O.2   303  SGN303     -0.1181
     53  O62      -19.8040   55.5140   11.5830 O.3   304  IDS304     -0.4788
     54  O5       -14.1670   58.2770   15.0120 O.3   306  IDS306     -0.3314
     55  O2S      -12.4850   59.9410   10.8890 O.2   306  IDS306     -0.1181
     56  C3       -22.0630   54.3580   15.3600 C.3   304  IDS304      0.1176
     57  C4       -20.9530   54.9430   14.5110 C.3   304  IDS304      0.1267
     58  C1       -27.0320   55.6100   10.2590 C.3   303  SGN303      0.1795
     59  S1       -32.8190   50.5590   16.9880 S.3   301  SGN301     -0.0198
     60  C2       -18.4890   56.2770   16.8280 C.3   305  SGN305      0.1078
     61  C6       -30.8110   47.9920   11.0520 C.3   301  SGN301      0.1076
     62  C5       -26.4320   55.9360   12.5370 C.3   303  SGN303      0.1159
     63  C1       -29.1810   51.3230   11.0550 C.3   302  IDS302      0.1916
     64  N        -25.4180   54.7450    8.6610 N.3   303  SGN303     -0.1845
     65  N        -33.0660   50.9200   15.3890 N.3   301  SGN301     -0.1845
     66  C6       -20.4380   56.2050   12.3180 C.2   304  IDS304      0.3367
     67  C3       -29.2760   53.1440    9.2940 C.3   302  IDS302      0.1176
     68  C4       -16.9720   57.0450   15.1650 C.3   305  SGN305      0.1176
     69  O6       -26.1660   58.0580   13.4480 O.3   303  SGN303     -0.2131
     70  C4       -30.8870   50.2800   12.3110 C.3   301  SGN301      0.1176
     71  O4S      -26.7750   59.4810   15.2590 O.2   303  SGN303     -0.1181
     72  C6       -29.2840   54.5850   12.8390 C.2   302  IDS302      0.3367
     73  O5       -27.1550   56.4160   11.4100 O.3   303  SGN303     -0.3413
     74  O3S      -23.5660   58.3970   17.1090 O.3   304  IDS304     -0.2311
     75  C1       -15.1070   57.9120   14.0290 C.3   306  IDS306      0.1916
     76  O6S      -27.9010   59.6410   13.2050 O.3   303  SGN303     -0.2311
     77  C4       -24.9350   55.8980   12.2500 C.3   303  SGN303      0.1176
     78  O3       -22.4910   53.1540   14.7660 O.3   304  IDS304     -0.3863
     79  O5       -22.4140   56.5950   13.5770 O.3   304  IDS304     -0.3314
     80  O6       -15.7690   55.0660   13.5390 O.3   305  SGN305     -0.2131
     81  O5       -28.8030   52.3570   11.9470 O.3   302  IDS302     -0.3314
     82  O3       -17.5120   58.4000   17.0460 O.3   305  SGN305     -0.3874
     83  O1S      -18.4800   54.4800   18.9010 O.3   305  SGN305     -0.2626
     84  O3S      -26.1230   54.0600    6.4410 O.3   303  SGN303     -0.2626
     85  O5S      -14.3120   53.1760   13.4900 O.3   305  SGN305     -0.2311
     86  O3S      -20.7910   54.8560   18.9790 O.3   305  SGN305     -0.2626
     87  O1S      -27.3360   50.8270    7.2830 O.2   302  IDS302     -0.1181
     88  O5       -18.1580   55.0520   14.8090 O.3   305  SGN305     -0.3413
     89  O4S      -13.7690   55.2180   12.3180 O.2   305  SGN305     -0.1181
     90  O62      -29.7670   55.7220   12.7560 O.3   302  IDS302     -0.4788
     91  C3       -14.7230   60.2760   13.0350 C.3   306  IDS306      0.1172
     92  S2       -28.6620   46.4670   11.3490 S.O2  301  SGN301      0.2076
     93  O2S      -23.8040   56.6420   18.6650 O.2   304  IDS304     -0.1181
     94  C2       -28.8600   51.7160    9.6440 C.3   302  IDS302      0.1684
     95  O2S      -24.9390   56.1250    6.6820 O.3   303  SGN303     -0.2626
     96  O4       -20.2710   55.8690   15.2930 O.3   304  IDS304     -0.3406
     97  O4       -16.4210   58.1150   14.4880 O.3   305  SGN305     -0.3401
     98  C6       -26.7930   56.8390   13.7030 C.3   303  SGN303      0.1076
     99  C2       -14.9060   58.7580   12.7910 C.3   306  IDS306      0.1684
    100  O2S      -19.3140   56.2160   20.2320 O.3   305  SGN305     -0.2626
    101  C4       -28.9060   54.1400   10.3760 C.3   302  IDS302      0.1267
    102  C1       -32.9580   48.9970   13.8590 C.3   301  SGN301      0.1762
    103  O3       -23.3570   55.1650   10.6110 O.3   303  SGN303     -0.3874
    104  O2S      -25.3800   51.0740    8.6300 O.2   302  IDS302     -0.1181
    105  O1S      -31.7370   49.5990   17.0590 O.3   301  SGN301     -0.2626
    106  O2       -27.5060   51.6370    9.4760 O.3   302  IDS302     -0.2047
    107 H         -21.9512   54.8293   12.6858 H     304  IDS304      0.0742
    108 H         -33.2320   52.4147   17.5705 H     301  SGN301      0.2439
    109 H         -24.9872   54.0519   11.1771 H     303  SGN303      0.0638
    110 H         -32.7563   51.3508   12.6202 H     301  SGN301      0.0638
    111 H         -13.4453   61.5851   16.7057 H     306  IDS306      0.2951
    112 H         -16.5390   56.5747   12.4501 H     305  SGN305      0.0611
    113 H         -17.4285   55.0882   12.3851 H     305  SGN305      0.0611
    114 H         -27.8878   49.1422    9.0468 H     302  IDS302      0.2469
    115 H         -15.4499   59.7113   15.7278 H     306  IDS306      0.0741
    116 H         -18.4683   56.8073   13.7805 H     305  SGN305      0.0648
    117 H         -14.5149   61.5544   14.7626 H     306  IDS306      0.0652
    118 H         -30.9379   52.5371    8.4649 H     302  IDS302      0.2100
    119 H         -28.6744   44.4828   11.1622 H     301  SGN301      0.2469
    120 H         -34.7627   50.6560   17.4003 H     301  SGN301      0.2439
    121 H         -18.8363   58.0127   15.6084 H     305  SGN305      0.0638
    122 H         -30.4731   53.4596   11.5734 H     302  IDS302      0.0742
    123 H         -15.9233   61.8378   13.0336 H     306  IDS306      0.2100
    124 H         -31.3381   49.9697   14.9068 H     301  SGN301      0.0554
    125 H         -32.4213   49.3546   11.2678 H     301  SGN301      0.0648
    126 H         -27.0182   56.7702    7.9278 H     303  SGN303      0.2439
    127 H         -12.3687   59.8082   13.9743 H     306  IDS306      0.2100
    128 H         -19.3611   54.4083   16.3089 H     305  SGN305      0.0927
    129 H         -24.2053   56.9359   14.4247 H     304  IDS304      0.0939
    130 H         -19.1779   57.4373   18.2973 H     305  SGN305      0.1485
    131 H         -25.2667   56.5776    9.5909 H     303  SGN303      0.0554
    132 H         -13.3595   56.9515    9.9765 H     306  IDS306      0.2469
    133 H         -24.1205   54.7417   15.6867 H     304  IDS304      0.0699
    134 H         -30.4719   52.0565   14.1304 H     301  SGN301      0.2100
    135 H         -34.5942   48.6323   12.7801 H     301  SGN301      0.2125
    136 H         -19.9601   54.5905   11.5571 H     304  IDS304      0.2951
    137 H         -21.6908   54.1815   16.3475 H     304  IDS304      0.0649
    138 H         -20.3044   54.1560   14.1870 H     304  IDS304      0.0656
    139 H         -27.6405   56.0372    9.4895 H     303  SGN303      0.0927
    140 H         -17.6266   55.8419   17.2882 H     305  SGN305      0.0554
    141 H         -30.4243   48.4861   10.1853 H     301  SGN301      0.0611
    142 H         -31.4353   47.1781   10.7474 H     301  SGN301      0.0611
    143 H         -26.6944   54.9260   12.7737 H     303  SGN303      0.0648
    144 H         -28.6237   50.4500   11.3237 H     302  IDS302      0.0939
    145 H         -24.4183   54.5693    8.5599 H     303  SGN303      0.1485
    146 H         -34.0406   50.7068   15.1768 H     301  SGN301      0.1485
    147 H         -28.7656   53.4228    8.3959 H     302  IDS302      0.0649
    148 H         -16.1860   56.5365   15.6831 H     305  SGN305      0.0650
    149 H         -29.9938   50.0644   12.8593 H     301  SGN301      0.0650
    150 H         -23.6802   58.6298   16.1743 H     304  IDS304      0.2469
    151 H         -14.9629   56.8752   13.8071 H     306  IDS306      0.0939
    152 H         -28.5421   59.0146   13.5757 H     303  SGN303      0.2469
    153 H         -24.5418   56.8846   12.1197 H     303  SGN303      0.0650
    154 H         -22.8243   53.3346   13.8731 H     304  IDS304      0.2100
    155 H         -16.7863   57.9718   17.5266 H     305  SGN305      0.2100
    156 H         -17.6147   54.9128   18.9700 H     305  SGN305      0.2439
    157 H         -26.8212   53.5178    6.8402 H     303  SGN303      0.2439
    158 H         -15.0460   52.5740   13.6894 H     305  SGN305      0.2469
    159 H         -20.8511   54.3452   18.1566 H     305  SGN305      0.2439
    160 H         -30.2155   55.9847   11.9764 H     302  IDS302      0.2951
    161 H         -14.0202   60.6529   12.3216 H     306  IDS306      0.0649
    162 H         -29.4054   51.0513    9.0071 H     302  IDS302      0.0699
    163 H         -24.8719   56.9176    7.2371 H     303  SGN303      0.2439
    164 H         -26.4367   56.4217   14.6216 H     303  SGN303      0.0611
    165 H         -27.8525   56.9537   13.7989 H     303  SGN303      0.0611
    166 H         -15.8129   58.6292   12.2380 H     306  IDS306      0.0699
    167 H         -18.4182   56.5881   20.2251 H     305  SGN305      0.2439
    168 H         -29.3340   55.0941   10.1494 H     302  IDS302      0.0656
    169 H         -33.2539   48.3758   14.6784 H     301  SGN301      0.0925
    170 H         -23.1345   56.0931   10.4376 H     303  SGN303      0.2100
    171 H         -31.5697   49.3684   17.9862 H     301  SGN301      0.2439
@<TRIPOS>BOND
     1     1     2    1
     2     1    40    2
     3     1    93    2
     4     1    74    1
     5     2    49    1
     6     3    21    1
     7     3    20    2
     8     3    17    1
     9     4    77    1
    10     4    43    1
    11     5    57    1
    12     5    66    1
    13     5    79    1
    14     6    46    2
    15     7    44    1
    16     7    83    1
    17     7   100    1
    18     7    86    1
    19     8    70    1
    20     8    63    1
    21     9    59    1
    22    10    45    1
    23    10    77    1
    24    10   103    1
    25    11    92    2
    26    12    92    2
    27    13    35    1
    28    13    70    1
    29    13    50    1
    30    14    69    1
    31    14    71    2
    32    14    52    2
    33    14    76    1
    34    15   106    1
    35    15    87    2
    36    15   104    2
    37    15    19    1
    38    16    64    1
    39    16    38    1
    40    16    95    1
    41    16    84    1
    42    18    25    1
    43    18    80    1
    44    21    26    1
    45    21    54    1
    46    22    37    1
    47    22    30    2
    48    22    55    2
    49    22    48    1
    50    23   102    1
    51    23    36    1
    52    24   101    1
    53    24    58    1
    54    25    68    1
    55    25    88    1
    56    26    91    1
    57    26    41    1
    58    27    67    1
    59    28    92    1
    60    29    66    2
    61    31    59    1
    62    32    60    1
    63    32    68    1
    64    32    82    1
    65    33   101    1
    66    33    72    1
    67    33    81    1
    68    34    91    1
    69    35   102    1
    70    35    65    1
    71    36    70    1
    72    36    61    1
    73    37    99    1
    74    39    61    1
    75    39    92    1
    76    42    96    1
    77    42    60    1
    78    42    88    1
    79    43    49    1
    80    43    79    1
    81    44    60    1
    82    45    58    1
    83    45    64    1
    84    46    80    1
    85    46    89    2
    86    46    85    1
    87    47    72    2
    88    49    56    1
    89    51   102    1
    90    53    66    1
    91    54    75    1
    92    56    57    1
    93    56    78    1
    94    57    96    1
    95    58    73    1
    96    59    65    1
    97    59   105    1
    98    62    77    1
    99    62    98    1
   100    62    73    1
   101    63    94    1
   102    63    81    1
   103    67    94    1
   104    67   101    1
   105    68    97    1
   106    69    98    1
   107    72    90    1
   108    75    97    1
   109    75    99    1
   110    91    99    1
   111    94   106    1
   112     5   107    1
   113     9   108    1
   114    10   109    1
   115    13   110    1
   116    17   111    1
   117    18   112    1
   118    18   113    1
   119    19   114    1
   120    21   115    1
   121    25   116    1
   122    26   117    1
   123    27   118    1
   124    28   119    1
   125    31   120    1
   126    32   121    1
   127    33   122    1
   128    34   123    1
   129    35   124    1
   130    36   125    1
   131    38   126    1
   132    41   127    1
   133    42   128    1
   134    43   129    1
   135    44   130    1
   136    45   131    1
   137    48   132    1
   138    49   133    1
   139    50   134    1
   140    51   135    1
   141    53   136    1
   142    56   137    1
   143    57   138    1
   144    58   139    1
   145    60   140    1
   146    61   141    1
   147    61   142    1
   148    62   143    1
   149    63   144    1
   150    64   145    1
   151    65   146    1
   152    67   147    1
   153    68   148    1
   154    70   149    1
   155    74   150    1
   156    75   151    1
   157    76   152    1
   158    77   153    1
   159    78   154    1
   160    82   155    1
   161    83   156    1
   162    84   157    1
   163    85   158    1
   164    86   159    1
   165    90   160    1
   166    91   161    1
   167    94   162    1
   168    95   163    1
   169    98   164    1
   170    98   165    1
   171    99   166    1
   172   100   167    1
   173   101   168    1
   174   102   169    1
   175   103   170    1
   176   105   171    1
