@<TRIPOS>MOLECULE
2BRS_LIGAND_1.pdb
 58 59 0 0 0
SMALL
GASTEIGER

@<TRIPOS>ATOM
      1  C5        62.8780   43.6230   37.1500 C.3   1623  IDU1623     0.1603
      2  O3S       66.3610   41.8980   32.8900 O.2   1623  IDU1623    -0.1181
      3  O5        64.2860   37.1000   38.4750 O.3   5702  SGN5702    -0.3416
      4  O1S       67.6060   43.4020   34.2560 O.2   1623  IDU1623    -0.1181
      5  S2        66.4580   37.3590   34.1630 S.O2  5702  SGN5702     0.2076
      6  O1        61.9820   36.7380   38.4480 O.3   5702  SGN5702    -0.3656
      7  O6        65.5870   38.1650   35.4230 O.3   5702  SGN5702    -0.2131
      8  O5        63.7630   42.4740   37.4000 O.3   1623  IDU1623    -0.3340
      9  O2        65.4190   42.5300   35.2240 O.3   1623  IDU1623    -0.2048
     10  C3        63.1720   43.2170   34.6880 C.3   1623  IDU1623     0.0914
     11  C1        63.6670   41.4210   36.3870 C.3   1623  IDU1623     0.1914
     12  O4        64.4250   40.2700   36.6970 O.3   5702  SGN5702    -0.3401
     13  S         66.3150   42.9730   33.8090 S.O2  1623  IDU1623     0.2080
     14  C4        63.2660   44.2650   35.8080 C.3   1623  IDU1623     0.0128
     15  C2        62.8880   38.6240   39.6940 C.3   5702  SGN5702     0.1076
     16  O62       63.8100   44.4500   39.1530 O.2   1623  IDU1623    -0.2481
     17  C5        64.4120   37.9720   37.3780 C.3   5702  SGN5702     0.1159
     18  O6S       67.7360   38.0070   34.1140 O.3   5702  SGN5702    -0.2311
     19  C4        64.2700   39.4260   37.8710 C.3   5702  SGN5702     0.1176
     20  O3        61.8520   42.7610   34.5840 O.3   1623  IDU1623    -0.3889
     21  C6        65.7500   37.7130   36.7590 C.3   5702  SGN5702     0.1076
     22  O1S       62.7690   37.5620   42.4820 O.3   5702  SGN5702    -0.2626
     23  C6        63.0130   44.6650   38.2270 C.2   1623  IDU1623     0.3341
     24  O3        62.6920   40.8780   39.0000 O.3   5702  SGN5702    -0.3874
     25  O4S       65.8040   37.5060   32.9030 O.2   5702  SGN5702    -0.1181
     26  C3        62.8670   39.5670   38.5200 C.3   5702  SGN5702     0.1055
     27  S1        61.8910   38.6670   42.1520 S.3   5702  SGN5702    -0.0198
     28  C2        64.1050   42.0530   35.0560 C.3   1623  IDU1623     0.1660
     29  N         61.6520   38.6880   40.4020 N.3   5702  SGN5702    -0.1845
     30  O3S       62.4420   39.9690   42.4760 O.3   5702  SGN5702    -0.2626
     31  O5S       66.5430   35.9640   34.4900 O.2   5702  SGN5702    -0.1181
     32  O2S       60.6360   38.4220   42.7840 O.3   5702  SGN5702    -0.2626
     33  O61       62.3120   45.6930   38.1310 O.3   1623  IDU1623    -0.4788
     34  O2S       65.6660   44.0710   33.1090 O.3   1623  IDU1623    -0.2311
     35  C1        63.0680   37.1940   39.2190 C.3   5702  SGN5702     0.1762
     36 H          61.8679   43.2703   37.1363 H     1623  IDU1623     0.0715
     37 H          62.1446   35.8231   38.1698 H     5702  SGN5702     0.2125
     38 H          63.4603   43.6389   33.7479 H     1623  IDU1623     0.0622
     39 H          62.6600   41.0629   36.3355 H     1623  IDU1623     0.0939
     40 H          64.2685   44.6343   35.8667 H     1623  IDU1623     0.0321
     41 H          62.5981   45.0733   35.5948 H     1623  IDU1623     0.0321
     42 H          63.6996   38.9128   40.3287 H     5702  SGN5702     0.0554
     43 H          63.6500   37.8113   36.6442 H     5702  SGN5702     0.0648
     44 H          67.6155   38.9430   33.8896 H     5702  SGN5702     0.2469
     45 H          64.9981   39.7066   38.6031 H     5702  SGN5702     0.0650
     46 H          61.5756   42.3751   35.4299 H     1623  IDU1623     0.2099
     47 H          66.5171   38.2662   37.2595 H     5702  SGN5702     0.0611
     48 H          66.0470   36.6868   36.8197 H     5702  SGN5702     0.0611
     49 H          62.3410   36.7257   42.2406 H     5702  SGN5702     0.2439
     50 H          61.8140   40.9598   39.4042 H     5702  SGN5702     0.2100
     51 H          62.0819   39.3545   37.8248 H     5702  SGN5702     0.0638
     52 H          64.0616   41.3296   34.2688 H     1623  IDU1623     0.0698
     53 H          61.0793   37.8863   40.1381 H     5702  SGN5702     0.1485
     54 H          63.2916   40.0827   42.0219 H     5702  SGN5702     0.2439
     55 H          60.3146   37.5416   42.5341 H     5702  SGN5702     0.2439
     56 H          61.7280   45.7957   37.4055 H     1623  IDU1623     0.2951
     57 H          66.1828   44.3029   32.3216 H     1623  IDU1623     0.2469
     58 H          63.1120   36.5624   40.0816 H     5702  SGN5702     0.0925
@<TRIPOS>BOND
     1     1    14    1
     2     1    23    1
     3     1     8    1
     4     2    13    2
     5     3    35    1
     6     3    17    1
     7     4    13    2
     8     5     7    1
     9     5    25    2
    10     5    31    2
    11     5    18    1
    12     6    35    1
    13     7    21    1
    14     8    11    1
    15     9    28    1
    16     9    13    1
    17    10    28    1
    18    10    14    1
    19    10    20    1
    20    11    28    1
    21    11    12    1
    22    12    19    1
    23    13    34    1
    24    15    35    1
    25    15    26    1
    26    15    29    1
    27    16    23    2
    28    17    19    1
    29    17    21    1
    30    19    26    1
    31    22    27    1
    32    23    33    1
    33    24    26    1
    34    27    29    1
    35    27    32    1
    36    27    30    1
    37     1    36    1
    38     6    37    1
    39    10    38    1
    40    11    39    1
    41    14    40    1
    42    14    41    1
    43    15    42    1
    44    17    43    1
    45    18    44    1
    46    19    45    1
    47    20    46    1
    48    21    47    1
    49    21    48    1
    50    22    49    1
    51    24    50    1
    52    26    51    1
    53    28    52    1
    54    29    53    1
    55    30    54    1
    56    32    55    1
    57    33    56    1
    58    34    57    1
    59    35    58    1
