@<TRIPOS>MOLECULE
2BRS_LIGAND_1_uncharged.pdb
 53 54 0 0 0
SMALL
GASTEIGER

@<TRIPOS>ATOM
      1  C5        62.8780   43.6230   37.1500 C.3   1623  IDU1623     0.1603
      2  O3S       66.3610   41.8980   32.8900 O.2   1623  IDU1623    -0.3452
      3  O5        64.2860   37.1000   38.4750 O.3   5702  SGN5702    -0.3416
      4  O1S       67.6060   43.4020   34.2560 O.2   1623  IDU1623    -0.3452
      5  S2        66.4580   37.3590   34.1630 S.3   5702  SGN5702    -0.0008
      6  O1        61.9820   36.7380   38.4480 O.3   5702  SGN5702    -0.3656
      7  O6        65.5870   38.1650   35.4230 O.3   5702  SGN5702    -0.2520
      8  O5        63.7630   42.4740   37.4000 O.3   1623  IDU1623    -0.3340
      9  O2        65.4190   42.5300   35.2240 O.3   1623  IDU1623    -0.2436
     10  C3        63.1720   43.2170   34.6880 C.3   1623  IDU1623     0.0912
     11  C1        63.6670   41.4210   36.3870 C.3   1623  IDU1623     0.1913
     12  O4        64.4250   40.2700   36.6970 O.3   5702  SGN5702    -0.3401
     13  S         66.3150   42.9730   33.8090 S.3   1623  IDU1623    -0.0004
     14  C4        63.2660   44.2650   35.8080 C.3   1623  IDU1623     0.0128
     15  C2        62.8880   38.6240   39.6940 C.3   5702  SGN5702     0.1079
     16  O62       63.8100   44.4500   39.1530 O.2   1623  IDU1623    -0.2481
     17  C5        64.4120   37.9720   37.3780 C.3   5702  SGN5702     0.1158
     18  O6S       67.7360   38.0070   34.1140 O.3   5702  SGN5702    -0.2682
     19  C4        64.2700   39.4260   37.8710 C.3   5702  SGN5702     0.1176
     20  O3        61.8520   42.7610   34.5840 O.3   1623  IDU1623    -0.3889
     21  C6        65.7500   37.7130   36.7590 C.3   5702  SGN5702     0.1035
     22  O1S       62.7690   37.5620   42.4820 O.3   5702  SGN5702    -0.0534
     23  C6        63.0130   44.6650   38.2270 C.2   1623  IDU1623     0.3341
     24  O3        62.6920   40.8780   39.0000 O.3   5702  SGN5702    -0.3874
     25  O4S       65.8040   37.5060   32.9030 O.2   5702  SGN5702    -0.3452
     26  C3        62.8670   39.5670   38.5200 C.3   5702  SGN5702     0.1055
     27  S1        61.8910   38.6670   42.1520 S.3   5702  SGN5702     0.0767
     28  C2        64.1050   42.0530   35.0560 C.3   1623  IDU1623     0.1620
     29  N         61.6520   38.6880   40.4020 N.3   5702  SGN5702    -0.1775
     30  O3S       62.4420   39.9690   42.4760 O.3   5702  SGN5702    -0.0534
     31  O5S       66.5430   35.9640   34.4900 O.2   5702  SGN5702    -0.3452
     32  O2S       60.6360   38.4220   42.7840 O.3   5702  SGN5702    -0.0534
     33  O61       62.3120   45.6930   38.1310 O.3   1623  IDU1623    -0.4788
     34  O2S       65.6660   44.0710   33.1090 O.3   1623  IDU1623    -0.2682
     35  C1        63.0680   37.1940   39.2190 C.3   5702  SGN5702     0.1762
     36  H         61.8680   43.2700   37.1360 H     1623  IDU1623     0.0715
     37  H         62.1450   35.8230   38.1700 H     5702  SGN5702     0.2125
     38  H         63.4600   43.6390   33.7480 H     1623  IDU1623     0.0622
     39  H         62.6600   41.0630   36.3360 H     1623  IDU1623     0.0939
     40  H         64.2690   44.6340   35.8670 H     1623  IDU1623     0.0321
     41  H         62.5980   45.0730   35.5950 H     1623  IDU1623     0.0321
     42  H         63.7000   38.9130   40.3290 H     5702  SGN5702     0.0554
     43  H         63.6500   37.8110   36.6440 H     5702  SGN5702     0.0648
     44  H         64.9980   39.7070   38.6030 H     5702  SGN5702     0.0650
     45  H         61.5760   42.3750   35.4300 H     1623  IDU1623     0.2099
     46  H         66.5170   38.2660   37.2600 H     5702  SGN5702     0.0610
     47  H         66.0470   36.6870   36.8200 H     5702  SGN5702     0.0610
     48  H         61.8140   40.9600   39.4040 H     5702  SGN5702     0.2100
     49  H         62.0820   39.3550   37.8250 H     5702  SGN5702     0.0638
     50  H         64.0620   41.3300   34.2690 H     1623  IDU1623     0.0697
     51  H         61.0790   37.8860   40.1380 H     5702  SGN5702     0.1487
     52  H         61.7280   45.7960   37.4060 H     1623  IDU1623     0.2951
     53  H         63.1120   36.5620   40.0820 H     5702  SGN5702     0.0925
@<TRIPOS>BOND
     1     1    14    1
     2     1    23    1
     3     1     8    1
     4     1    36    1
     5     2    13    2
     6     3    35    1
     7     3    17    1
     8     4    13    2
     9     5     7    1
    10     5    25    2
    11     5    31    2
    12     5    18    1
    13     6    35    1
    14     6    37    1
    15     7    21    1
    16     8    11    1
    17     9    28    1
    18     9    13    1
    19    10    28    1
    20    10    14    1
    21    10    20    1
    22    10    38    1
    23    11    28    1
    24    11    12    1
    25    11    39    1
    26    12    19    1
    27    13    34    1
    28    14    40    1
    29    14    41    1
    30    15    35    1
    31    15    26    1
    32    15    29    1
    33    15    42    1
    34    16    23    2
    35    17    19    1
    36    17    21    1
    37    17    43    1
    38    19    26    1
    39    19    44    1
    40    20    45    1
    41    21    46    1
    42    21    47    1
    43    22    27    1
    44    23    33    1
    45    24    26    1
    46    24    48    1
    47    26    49    1
    48    27    29    1
    49    27    32    1
    50    27    30    1
    51    28    50    1
    52    29    51    1
    53    33    52    1
    54    35    53    1
