@<TRIPOS>MOLECULE
2JCQ_LIGAND_1_uncharged.pdb
 171 177 0 0 0
SMALL
GASTEIGER

@<TRIPOS>ATOM
      1  C4         2.3970  -15.6830   16.7340 C.3   1175  NAG1175     0.1116
      2  HN2       14.6320  -17.2020   -5.1840 H     1181  NAG1181     0.1492
      3  H4        11.9730  -11.7090   12.2820 H     1177  NAG1177     0.0647
      4  N2        14.2030  -18.0420   -4.7520 N.am  1181  NAG1181    -0.3053
      5  H82        5.2430  -11.1050   10.7510 H     1177  NAG1177     0.0322
      6  O2         9.7040   -9.0550    8.6490 O.3   1178  BDP1178    -0.3841
      7  C1        11.9450  -17.1240   -4.6030 C.3   1181  NAG1181     0.1808
      8  HO1        2.2880  -16.9170   21.0110 H     1175  NAG1175     0.2125
      9  H81       13.8620  -20.4330   -3.0760 H     1181  NAG1181     0.0322
     10  H1        12.3520  -16.2110   -5.0380 H     1181  NAG1181     0.0930
     11  C7         7.3190  -10.6120   10.8580 C.2   1177  NAG1177     0.2104
     12  O7         8.2230  -13.8480    2.4570 O.2   1179  NAG1179    -0.2761
     13  O6        11.6370   -8.2700    1.4090 O.3   1179  NAG1179    -0.3924
     14  H2         9.4240  -10.9490   12.3570 H     1177  NAG1177     0.0575
     15  O4        12.6420  -13.1480   10.9840 O.3   1177  NAG1177    -0.3865
     16  O1         1.5260  -16.5970   20.6560 O.3   1175  NAG1175    -0.3654
     17  O7         5.9690  -15.2380   21.1980 O.2   1175  NAG1175    -0.2761
     18  H1         9.4090  -11.7060    8.6300 H     1178  BDP1178     0.0938
     19  O7         7.7000   -9.4740   11.2820 O.2   1177  NAG1177    -0.2761
     20  O6A       14.9100  -15.3970   -2.4230 O.2   1180  BDP1180    -0.2480
     21  HO4       12.2450  -13.2050   10.0300 H     1177  NAG1177     0.2100
     22  C4        11.8140  -11.2110    0.7920 C.3   1179  NAG1179     0.1116
     23  H4         2.6500  -16.7260   16.5570 H     1175  NAG1175     0.0647
     24  HB         6.1440  -13.6790   18.8120 H     1176  BDP1176     0.2101
     25  H81        5.7780   -9.8830    9.5750 H     1177  NAG1177     0.0322
     26  C7        14.9300  -18.7870   -3.9050 C.2   1181  NAG1181     0.2104
     27  O6         8.1010  -18.0010   -5.6050 O.3   1181  NAG1181    -0.3924
     28  H81        9.5310  -16.3640    3.4940 H     1179  NAG1179     0.0322
     29  H62       12.1340  -14.6890   14.5480 H     1177  NAG1177     0.0584
     30  H5         0.5640  -14.7830   17.3800 H     1175  NAG1175     0.0647
     31  C5        11.1040  -12.5560    6.8550 C.3   1178  BDP1178     0.1863
     32  O6A        5.5770  -15.0960   12.7350 O.2   1176  BDP1176    -0.2480
     33  C4        11.1170  -18.9040   -6.6890 C.3   1181  NAG1181     0.1112
     34  O4        10.8640  -19.3740   -7.9950 O.3   1181  NAG1181    -0.3865
     35  O3        10.5570  -13.1850    0.3020 O.3   1179  NAG1179    -0.3408
     36  H2         3.3710  -17.0210   18.8280 H     1175  NAG1175     0.0575
     37  C6        12.8290   -9.0170    1.5450 C.3   1179  NAG1179     0.0730
     38  O3         9.0120  -13.4900   16.3760 O.3   1176  BDP1176    -0.3864
     39  H4        10.8150  -19.6660   -5.9700 H     1181  NAG1181     0.0646
     40  H5        10.1330  -13.0410    6.7670 H     1178  BDP1178     0.0742
     41  HN2        7.3990  -12.6010   11.0340 H     1177  NAG1177     0.1492
     42  C1        11.0900  -14.4120   -0.2160 C.3   1180  BDP1180     0.1890
     43  O5        12.0950  -14.1030   -1.1500 O.3   1180  BDP1180    -0.3315
     44  H83       14.3070  -20.6340   -4.7880 H     1181  NAG1181     0.0322
     45  C3        11.4010  -12.5940    1.2790 C.3   1179  NAG1179     0.1130
     46  H83        9.2510  -15.3930    4.9560 H     1179  NAG1179     0.0322
     47  O2         7.0140  -13.8550   18.3680 O.3   1176  BDP1176    -0.3841
     48  O6A       13.3210  -13.4520    6.9400 O.2   1178  BDP1178    -0.2480
     49  HN2        3.4930  -14.9930   20.9120 H     1175  NAG1175     0.1492
     50  C2         9.2130  -11.8870   11.8490 C.3   1177  NAG1177     0.1026
     51  O3         9.3090  -16.7220   -2.5760 O.3   1180  BDP1180    -0.3864
     52  H2        12.4710  -19.1810   -4.4790 H     1181  NAG1181     0.0575
     53  O7        15.8250  -18.3100   -3.2100 O.2   1181  NAG1181    -0.2761
     54  C2         6.8180  -14.2330   17.0160 C.3   1176  BDP1176     0.1342
     55  C3         3.3400  -15.1380   17.8160 C.3   1175  NAG1175     0.1130
     56  H83        6.1930  -11.5840    9.3230 H     1177  NAG1177     0.0322
     57  H61       13.2800  -14.3010   13.2690 H     1177  NAG1177     0.0584
     58  O6B       11.9120  -14.3430    5.4560 O.3   1178  BDP1178    -0.4788
     59  HO6       12.2580  -12.1070   14.2480 H     1177  NAG1177     0.2095
     60  C6        12.1920  -13.5270    6.3780 C.2   1178  BDP1178     0.3367
     61  C7         9.1340  -14.3120    3.1350 C.2   1179  NAG1179     0.2104
     62  H5        12.9870  -15.9360   -1.0110 H     1180  BDP1180     0.0742
     63  O4        10.5520  -11.5370    4.7480 O.3   1178  BDP1178    -0.3403
     64  HB         9.5410  -15.3640    1.0360 H     1180  BDP1180     0.2101
     65  H5         5.4140  -12.4710   14.6770 H     1176  BDP1176     0.0742
     66  H3        10.6670  -17.1690   -1.0940 H     1180  BDP1180     0.0648
     67  C2         3.1510  -15.9820   19.0670 C.3   1175  NAG1175     0.1024
     68  O4        12.7040  -11.3440   -0.3120 O.3   1179  NAG1179    -0.3865
     69  H5        10.9760  -14.5580   12.4050 H     1177  NAG1177     0.0647
     70  H3         7.3580  -12.2850   16.3700 H     1176  BDP1176     0.0648
     71  O4         7.9010  -12.5670   13.7650 O.3   1176  BDP1176    -0.3403
     72  H61        0.3030  -17.5500   16.1850 H     1175  NAG1175     0.0584
     73  N2         3.9670  -15.5400   20.2090 N.am  1175  NAG1175    -0.3053
     74  HC        10.9330   -8.3050    6.5700 H     1178  BDP1178     0.2100
     75  H1         1.3940  -14.8570   19.5940 H     1175  NAG1175     0.0928
     76  H3        12.8870  -17.7480   -7.0920 H     1181  NAG1181     0.0640
     77  C7         5.2320  -15.9040   20.4540 C.2   1175  NAG1175     0.2104
     78  O5        11.6530  -10.3890    3.0540 O.3   1179  NAG1179    -0.3412
     79  H61        8.6900  -18.2740   -7.5380 H     1181  NAG1181     0.0584
     80  H1         4.9020  -13.2470   17.0380 H     1176  BDP1176     0.0938
     81  H4        10.9170  -10.6810    0.4720 H     1179  NAG1179     0.0647
     82  HO4       11.6360  -19.1290   -8.6860 H     1181  NAG1181     0.2100
     83  N2         7.9540  -11.7630   11.0920 N.am  1177  NAG1177    -0.3053
     84  C2         9.9290  -15.1740   -0.8550 C.3   1180  BDP1180     0.1342
     85  HO3       13.7800  -20.1600   -6.2310 H     1181  NAG1181     0.2100
     86  H2        11.6110   -9.6630    8.2000 H     1178  BDP1178     0.0671
     87  O5        11.3510  -12.2490    8.2120 O.3   1178  BDP1178    -0.3315
     88  C8         5.7630  -17.1460   19.8140 C.3   1175  NAG1175     0.0122
     89  C2        12.8050  -18.3110   -5.0420 C.3   1181  NAG1181     0.1023
     90  H62        8.5850  -16.5950   -7.0170 H     1181  NAG1181     0.0584
     91  C8         8.9350  -15.5600    3.9270 C.3   1179  NAG1179     0.0122
     92  C5        10.3820  -17.5920   -6.3620 C.3   1181  NAG1181     0.1130
     93  C1         8.9920  -12.9560   12.9180 C.3   1177  NAG1177     0.1808
     94  O6        -1.2690  -16.2510   16.5110 O.3   1175  NAG1175    -0.3924
     95  H1         8.7400  -13.8960   12.4280 H     1177  NAG1177     0.0930
     96  C4        11.1120  -11.2880    6.0160 C.3   1178  BDP1178     0.1266
     97  C6        12.4330  -13.9180   13.8380 C.3   1177  NAG1177     0.0730
     98  C3        10.2500  -10.1690    6.6330 C.3   1178  BDP1178     0.1149
     99  HO4       12.8650  -12.2500   -0.5240 H     1179  NAG1179     0.2100
    100  C3        10.3820  -16.3350   -1.7360 C.3   1180  BDP1180     0.1149
    101  O5         0.8670  -16.4970   18.4540 O.3   1175  NAG1175    -0.3414
    102  C5         5.7720  -13.4820   14.4830 C.3   1176  BDP1176     0.1863
    103  C1         1.6810  -15.8990   19.4530 C.3   1175  NAG1175     0.1776
    104  HO6       -1.3540  -15.6940   17.2540 H     1175  NAG1175     0.2095
    105  O3        13.4090  -19.7210   -6.9320 O.3   1181  NAG1181    -0.3871
    106  H82        6.0140  -16.9570   18.7730 H     1175  NAG1175     0.0322
    107  C6         8.8860  -17.5960   -6.7080 C.3   1181  NAG1181     0.0730
    108  H81        6.6530  -17.4780   20.3480 H     1175  NAG1175     0.0322
    109  O3        10.6700  -11.1230   10.1740 O.3   1177  NAG1177    -0.3408
    110  H2         7.1670  -15.2560   16.8780 H     1176  BDP1176     0.0671
    111  C5        12.5030  -10.4520    1.9230 C.3   1179  NAG1179     0.1130
    112  HC         9.1180  -14.2320   17.0680 H     1176  BDP1176     0.2100
    113  H3         9.1920  -10.3920    6.5150 H     1178  BDP1178     0.0648
    114  H3         3.1240  -14.1010   18.0730 H     1175  NAG1175     0.0644
    115  H5        13.4320  -10.9670    2.1590 H     1179  NAG1179     0.0647
    116  N2        10.3490  -13.7720    3.2130 N.am  1179  NAG1179    -0.3053
    117  C4         7.2960  -13.5230   14.6220 C.3   1176  BDP1176     0.1266
    118  C4        11.6150  -12.6190   11.8000 C.3   1177  NAG1177     0.1116
    119  H2         9.3470  -14.4720   -1.4530 H     1180  BDP1180     0.0671
    120  O5        10.1740  -13.1360   13.6620 O.3   1177  NAG1177    -0.3412
    121  H3        10.0880  -13.0970   10.3290 H     1177  NAG1177     0.0644
    122  H3        12.3080  -13.1800    1.4300 H     1179  NAG1179     0.0644
    123  H61       13.4260   -9.0020    0.6330 H     1179  NAG1179     0.0584
    124  C2        10.5800   -9.9990    8.0890 C.3   1178  BDP1178     0.1342
    125  O3         4.7060  -15.2820   17.4800 O.3   1175  NAG1175    -0.3408
    126  C1        10.4250  -11.3390    8.7770 C.3   1178  BDP1178     0.1890
    127  HB         9.1520   -9.5130    9.3520 H     1178  BDP1178     0.2101
    128  HO6       10.8840   -8.7590    1.6560 H     1179  NAG1179     0.2095
    129  C3        10.3840  -12.2530   10.9520 C.3   1177  NAG1177     0.1130
    130  H1        12.3710  -12.1260    3.8980 H     1179  NAG1179     0.0930
    131  C2        10.6550  -12.4830    2.6190 C.3   1179  NAG1179     0.1026
    132  H4        11.2100  -15.2340   -3.3680 H     1180  BDP1180     0.0655
    133  O6B       13.6550  -13.8570   -3.4280 O.3   1180  BDP1180    -0.4788
    134  C1        11.4330  -11.6430    3.6260 C.3   1179  NAG1179     0.1808
    135  H2         9.7320  -11.9530    2.3860 H     1179  NAG1179     0.0575
    136  H1        11.5070  -15.0140    0.5910 H     1180  BDP1180     0.0938
    137  O5         5.1000  -14.4020   15.3490 O.3   1176  BDP1176    -0.3315
    138  C6        13.8280  -14.8020   -2.6150 C.2   1180  BDP1180     0.3367
    139  C5        11.2620  -13.6230   12.8860 C.3   1177  NAG1177     0.1130
    140  O2         9.1180  -15.6970    0.1750 O.3   1180  BDP1180    -0.3841
    141  C8        14.6380  -20.2590   -3.8210 C.3   1181  NAG1181     0.0122
    142  H62       13.4280   -8.5830    2.3390 H     1179  NAG1179     0.0584
    143  C4        11.5610  -15.9290   -2.6040 C.3   1180  BDP1180     0.1266
    144  O4        12.0950  -17.0930   -3.1740 O.3   1180  BDP1180    -0.3403
    145  O4         2.4670  -14.9290   15.5230 O.3   1175  NAG1175    -0.3865
    146  C6         5.3520  -13.9100   13.0960 C.2   1176  BDP1176     0.3367
    147  H82        7.8810  -15.8390    3.9080 H     1179  NAG1179     0.0322
    148  C5         0.9500  -15.7910   17.2300 C.3   1175  NAG1175     0.1130
    149  H5        10.8520  -16.7800   -6.9180 H     1181  NAG1181     0.0647
    150  C8         6.0460  -10.8120   10.0770 C.3   1177  NAG1177     0.0122
    151  C3        12.6060  -18.6290   -6.5150 C.3   1181  NAG1181     0.1065
    152  H4         7.6350  -14.5230   14.3510 H     1176  BDP1176     0.0655
    153  O6        12.8180  -12.7530   14.5460 O.3   1177  NAG1177    -0.3924
    154  C6         0.0770  -16.4840   16.1950 C.3   1175  NAG1175     0.0730
    155  C5        12.6380  -15.2440   -1.7770 C.3   1180  BDP1180     0.1863
    156  O5        10.5860  -17.2730   -4.9880 O.3   1181  NAG1181    -0.3412
    157  C1         5.3150  -14.2070   16.7310 C.3   1176  BDP1176     0.1890
    158  H62        0.2850  -16.0890   15.2010 H     1175  NAG1175     0.0584
    159  HO4        3.0940  -14.1710   15.6940 H     1175  NAG1175     0.2100
    160  C3         7.6280  -13.3000   16.1070 C.3   1176  BDP1176     0.1149
    161  H4        12.1370  -10.9300    5.9200 H     1178  BDP1178     0.0655
    162  H83        5.0390  -17.9570   19.8910 H     1175  NAG1175     0.0322
    163  HN2       11.1270  -14.4110    3.2750 H     1179  NAG1179     0.1492
    164  H82       15.5400  -20.7920   -3.5290 H     1181  NAG1181     0.0322
    165  O3        10.5900   -8.9660    5.9680 O.3   1178  BDP1178    -0.3864
    166  HC         8.5610  -16.2220   -2.3470 H     1180  BDP1180     0.2100
    167  O6B        4.7620  -13.0540   12.3840 O.3   1176  BDP1176    -0.4788
    168  H          7.1640  -17.9930   -5.8550 H     1181  NAG1181     0.2095
    169  H         11.0540  -14.3480    5.0800 H     1178  BDP1178     0.2951
    170  H         12.8100  -13.4620   -3.5140 H     1180  BDP1180     0.2951
    171  H          4.6250  -12.1870   12.7110 H     1176  BDP1176     0.2951
@<TRIPOS>BOND
     1     1    55    1
     2     1   148    1
     3     1   145    1
     4     1    23    1
     5     2     4    1
     6     3   118    1
     7     4    26   am
     8     4    89    1
     9     5   150    1
    10     6   124    1
    11     6   127    1
    12     7   144    1
    13     7    89    1
    14     7   156    1
    15     7    10    1
    16     8    16    1
    17     9   141    1
    18    11   150    1
    19    11    83   am
    20    11    19    2
    21    12    61    2
    22    13    37    1
    23    13   128    1
    24    14    50    1
    25    15   118    1
    26    15    21    1
    27    16   103    1
    28    17    77    2
    29    18   126    1
    30    20   138    2
    31    22    45    1
    32    22   111    1
    33    22    68    1
    34    22    81    1
    35    24    47    1
    36    25   150    1
    37    26   141    1
    38    26    53    2
    39    27   107    1
    40    27   168    1
    41    28    91    1
    42    29    97    1
    43    30   148    1
    44    31    96    1
    45    31    60    1
    46    31    87    1
    47    31    40    1
    48    32   146    2
    49    33    92    1
    50    33   151    1
    51    33    34    1
    52    33    39    1
    53    34    82    1
    54    35    45    1
    55    35    42    1
    56    36    67    1
    57    37   111    1
    58    37   123    1
    59    37   142    1
    60    38   160    1
    61    38   112    1
    62    41    83    1
    63    42    84    1
    64    42    43    1
    65    42   136    1
    66    43   155    1
    67    44   141    1
    68    45   131    1
    69    45   122    1
    70    46    91    1
    71    47    54    1
    72    48    60    2
    73    49    73    1
    74    50    93    1
    75    50   129    1
    76    50    83    1
    77    51   100    1
    78    51   166    1
    79    52    89    1
    80    54   157    1
    81    54   160    1
    82    54   110    1
    83    55    67    1
    84    55   125    1
    85    55   114    1
    86    56   150    1
    87    57    97    1
    88    58    60    1
    89    58   169    1
    90    59   153    1
    91    61    91    1
    92    61   116   am
    93    62   155    1
    94    63    96    1
    95    63   134    1
    96    64   140    1
    97    65   102    1
    98    66   100    1
    99    67   103    1
   100    67    73    1
   101    68    99    1
   102    69   139    1
   103    70   160    1
   104    71   117    1
   105    71    93    1
   106    72   154    1
   107    73    77   am
   108    74   165    1
   109    75   103    1
   110    76   151    1
   111    77    88    1
   112    78   134    1
   113    78   111    1
   114    79   107    1
   115    80   157    1
   116    84   100    1
   117    84   140    1
   118    84   119    1
   119    85   105    1
   120    86   124    1
   121    87   126    1
   122    88   108    1
   123    88   106    1
   124    88   162    1
   125    89   151    1
   126    90   107    1
   127    91   147    1
   128    92   107    1
   129    92   156    1
   130    92   149    1
   131    93   120    1
   132    93    95    1
   133    94   154    1
   134    94   104    1
   135    96    98    1
   136    96   161    1
   137    97   139    1
   138    97   153    1
   139    98   124    1
   140    98   165    1
   141    98   113    1
   142   100   143    1
   143   101   103    1
   144   101   148    1
   145   102   117    1
   146   102   146    1
   147   102   137    1
   148   105   151    1
   149   109   129    1
   150   109   126    1
   151   111   115    1
   152   116   131    1
   153   116   163    1
   154   117   160    1
   155   117   152    1
   156   118   129    1
   157   118   139    1
   158   120   139    1
   159   121   129    1
   160   124   126    1
   161   125   157    1
   162   130   134    1
   163   131   134    1
   164   131   135    1
   165   132   143    1
   166   133   138    1
   167   133   170    1
   168   137   157    1
   169   138   155    1
   170   141   164    1
   171   143   155    1
   172   143   144    1
   173   145   159    1
   174   146   167    1
   175   148   154    1
   176   154   158    1
   177   167   171    1
