@<TRIPOS>MOLECULE
2JCR_LIGAND_1_uncharged.pdb
 171 177 0 0 0
SMALL
GASTEIGER

@<TRIPOS>ATOM
      1  C8         3.6550  -14.0060   22.5420 C.3   1175  NAG1175     0.0122
      2  C7         6.8830  -10.8670   10.9420 C.2   1177  NAG1177     0.2104
      3  C1        11.3530  -12.2430    3.6960 C.3   1179  NAG1179     0.1808
      4  C1         4.9580  -14.2080   16.7350 C.3   1176  BDP1176     0.1890
      5  C4         6.9040  -13.7010   14.6040 C.3   1176  BDP1176     0.1266
      6  O2         9.3830  -16.4030    0.2640 O.3   1180  BDP1180    -0.3841
      7  C8         5.5590  -11.0530   10.2640 C.3   1177  NAG1177     0.0122
      8  N2         3.3810  -14.2970   20.1680 N.am  1175  NAG1175    -0.3053
      9  C3         9.9880  -12.5360   11.0250 C.3   1177  NAG1177     0.1130
     10  O7         4.9190  -15.5610   21.2370 O.2   1175  NAG1175    -0.2761
     11  C4        11.1810  -12.9090   11.8920 C.3   1177  NAG1177     0.1116
     12  O3        10.2810   -9.5300    5.8090 O.3   1178  BDP1178    -0.3864
     13  N2        10.4890  -14.4710    3.1600 N.am  1179  NAG1179    -0.3053
     14  O6B       11.7590  -14.8240    5.5670 O.2   1178  BDP1178    -0.2480
     15  C3         7.3280  -13.4520   16.0440 C.3   1176  BDP1176     0.1149
     16  C6        11.9140  -14.3450   13.8600 C.3   1177  NAG1177     0.0730
     17  O6A        5.0980  -15.2270   12.7760 O.2   1176  BDP1176    -0.2480
     18  C4        11.0000  -11.8140    6.0220 C.3   1178  BDP1178     0.1266
     19  N2        14.1470  -18.0080   -5.1970 N.am  1181  NAG1181    -0.3053
     20  C4        11.4960  -16.2790   -2.7950 C.3   1180  BDP1180     0.1266
     21  O6        11.7550  -13.7410   15.1310 O.3   1177  NAG1177    -0.3924
     22  O6        -1.6460  -16.5330   16.9440 O.3   1175  NAG1175    -0.3924
     23  O6A       14.8230  -15.4970   -2.6580 O.2   1180  BDP1180    -0.2480
     24  O7        16.1330  -19.0570   -5.2390 O.2   1181  NAG1181    -0.2761
     25  C4         1.9500  -15.5870   16.8680 C.3   1175  NAG1175     0.1116
     26  C1        11.0460  -14.8170   -0.3340 C.3   1180  BDP1180     0.1890
     27  C5        10.7650  -13.9460   12.9350 C.3   1177  NAG1177     0.1130
     28  O5         9.6950  -13.4430   13.7080 O.3   1177  NAG1177    -0.3412
     29  O3        10.3710  -11.4770   10.1780 O.3   1177  NAG1177    -0.3408
     30  O3        10.4760  -13.6890    0.3460 O.3   1179  NAG1179    -0.3408
     31  O6        11.6750   -8.8000    1.2780 O.3   1179  NAG1179    -0.3924
     32  O4        12.1950  -13.4040   11.0390 O.3   1177  NAG1177    -0.3865
     33  O6B        4.3430  -13.1650   12.4310 O.3   1176  BDP1176    -0.4788
     34  O6         7.7270  -17.9170   -5.8420 O.3   1181  NAG1181    -0.3924
     35  O1         0.9720  -15.6750   20.9860 O.3   1175  NAG1175    -0.3654
     36  C3        11.3620  -13.1250    1.2950 C.3   1179  NAG1179     0.1130
     37  O7         7.2090   -9.7630   11.3900 O.2   1177  NAG1177    -0.2761
     38  C7         9.2680  -14.9570    3.3760 C.2   1179  NAG1179     0.2104
     39  O5        11.6020  -10.9620    3.1580 O.3   1179  NAG1179    -0.3412
     40  O4        10.6750  -19.3540   -8.2840 O.3   1181  NAG1181    -0.3865
     41  C8         9.1020  -15.9310    4.5020 C.3   1179  NAG1179     0.0122
     42  C5         0.5300  -15.7100   17.4250 C.3   1175  NAG1175     0.1130
     43  O5        10.5000  -18.1910   -4.8260 O.3   1181  NAG1181    -0.3412
     44  C6        12.1170  -13.9870    6.4300 C.2   1178  BDP1178     0.3367
     45  N2         7.6440  -11.9570   10.9920 N.am  1177  NAG1177    -0.3053
     46  O5        11.8670  -14.3870   -1.3970 O.3   1180  BDP1180    -0.3315
     47  C6        13.6990  -14.9780   -2.8620 C.2   1180  BDP1180     0.3367
     48  O3         9.2410  -17.0970   -2.6780 O.3   1180  BDP1180    -0.3864
     49  O5         4.8180  -14.5770   15.3920 O.3   1176  BDP1176    -0.3315
     50  C6        -0.2990  -16.6360   16.5430 C.3   1175  NAG1175     0.0730
     51  C3        10.3590  -16.7540   -1.8850 C.3   1180  BDP1180     0.1149
     52  O3        13.3400  -19.9610   -7.2380 O.3   1181  NAG1181    -0.3871
     53  C4        11.7070  -11.7010    0.8720 C.3   1179  NAG1179     0.1116
     54  C3        10.1010  -10.7120    6.5560 C.3   1178  BDP1178     0.1149
     55  O2         9.5220   -9.4980    8.5080 O.3   1178  BDP1178    -0.3841
     56  C2         6.4460  -14.1190   17.0970 C.3   1176  BDP1176     0.1342
     57  O4        12.4950  -11.7280   -0.3000 O.3   1179  NAG1179    -0.3865
     58  O4         7.4540  -12.6860   13.7860 O.3   1176  BDP1176    -0.3403
     59  C4        11.0200  -19.3330   -6.9170 C.3   1181  NAG1181     0.1112
     60  C6         4.9010  -14.0450   13.1190 C.2   1176  BDP1176     0.3367
     61  C5        12.5290  -15.4740   -2.0100 C.3   1180  BDP1180     0.1863
     62  O5         0.5270  -16.1830   18.7640 O.3   1175  NAG1175    -0.3414
     63  C2         2.6680  -15.2380   19.3100 C.3   1175  NAG1175     0.1024
     64  C8        15.0190  -18.9240   -3.1330 C.3   1181  NAG1181     0.0122
     65  C1        10.2410  -11.7830    8.7790 C.3   1178  BDP1178     0.1890
     66  C2         9.9190  -15.7140   -0.8460 C.3   1180  BDP1180     0.1342
     67  O4         1.8590  -14.8900   15.6390 O.3   1175  NAG1175    -0.3865
     68  O6B       13.4800  -14.0740   -3.7050 O.3   1180  BDP1180    -0.4788
     69  C6        12.8190   -9.5490    1.6460 C.3   1179  NAG1179     0.0730
     70  O7         8.2920  -14.6420    2.6980 O.2   1179  NAG1179    -0.2761
     71  C2        10.6680  -13.1190    2.6550 C.3   1179  NAG1179     0.1026
     72  O6A       13.2880  -13.8800    6.8710 O.3   1178  BDP1178    -0.4788
     73  C7        15.1460  -18.6670   -4.6100 C.2   1181  NAG1181     0.2104
     74  C2        10.4040  -10.4740    8.0140 C.3   1178  BDP1178     0.1342
     75  C3         2.9250  -14.8880   17.8340 C.3   1175  NAG1175     0.1130
     76  C2        12.8170  -18.5870   -5.3170 C.3   1181  NAG1181     0.1023
     77  C6         8.6470  -18.9510   -6.1250 C.3   1181  NAG1181     0.0730
     78  C1         8.5260  -13.1580   12.9570 C.3   1177  NAG1177     0.1808
     79  C5        12.4340  -10.9830    2.0110 C.3   1179  NAG1179     0.1130
     80  O5        11.1970  -12.7080    8.3100 O.3   1178  BDP1178    -0.3315
     81  C5        11.0310  -13.0350    6.9350 C.3   1178  BDP1178     0.1863
     82  C1         1.1710  -15.2760   19.6440 C.3   1175  NAG1175     0.1776
     83  O3         4.2880  -15.1990   17.5460 O.3   1175  NAG1175    -0.3408
     84  C5        10.0710  -18.3910   -6.1620 C.3   1181  NAG1181     0.1130
     85  O3         8.6700  -13.8620   16.2100 O.3   1176  BDP1176    -0.3864
     86  C2         8.7940  -12.1150   11.8710 C.3   1177  NAG1177     0.1026
     87  C5         5.3850  -13.6610   14.5010 C.3   1176  BDP1176     0.1863
     88  O2         6.5790  -13.3400   18.2610 O.3   1176  BDP1176    -0.3841
     89  C7         4.0380  -14.6930   21.2600 C.2   1175  NAG1175     0.2104
     90  C3        12.4890  -18.9230   -6.7740 C.3   1181  NAG1181     0.1065
     91  O4        12.1480  -17.4020   -3.3450 O.3   1180  BDP1180    -0.3403
     92  C1        11.7870  -17.6320   -4.7170 C.3   1181  NAG1181     0.1808
     93  O4        10.4380  -12.2110    4.8040 O.3   1178  BDP1178    -0.3403
     94  H          2.8800  -13.2940   22.3480 H     1175  NAG1175     0.0322
     95  H          4.5080  -13.5020   22.9450 H     1175  NAG1175     0.0322
     96  H          3.3040  -14.7320   23.2450 H     1175  NAG1175     0.0322
     97  H         12.3080  -12.6150    4.0040 H     1179  NAG1179     0.0930
     98  H          4.5200  -13.2480   16.9100 H     1176  BDP1176     0.0938
     99  H          7.2530  -14.6610   14.2860 H     1176  BDP1176     0.0655
    100  H          9.0980  -15.7630    0.9350 H     1180  BDP1180     0.2101
    101  H          5.4600  -12.0700    9.9470 H     1177  NAG1177     0.0322
    102  H          5.5000  -10.4070    9.4130 H     1177  NAG1177     0.0322
    103  H          4.7710  -10.8150   10.9480 H     1177  NAG1177     0.0322
    104  H          3.3770  -13.3410   19.9340 H     1175  NAG1175     0.1492
    105  H          9.6910  -13.3900   10.4530 H     1177  NAG1177     0.0644
    106  H         11.5500  -12.0580   12.4250 H     1177  NAG1177     0.0647
    107  H         10.0820   -9.7040    4.8760 H     1178  BDP1178     0.2100
    108  H         11.2770  -15.0320    3.3440 H     1179  NAG1179     0.1492
    109  H          7.2180  -12.4000   16.2080 H     1176  BDP1176     0.0648
    110  H         12.8400  -14.0250   13.4310 H     1177  NAG1177     0.0584
    111  H         11.9120  -15.4090   13.9780 H     1177  NAG1177     0.0584
    112  H         12.0010  -11.4450    5.9400 H     1178  BDP1178     0.0655
    113  H         14.3130  -17.1070   -5.5580 H     1181  NAG1181     0.1492
    114  H         11.0730  -15.6620   -3.5600 H     1180  BDP1180     0.0655
    115  H         11.7550  -12.7760   15.0330 H     1177  NAG1177     0.2095
    116  H         -2.1920  -17.1160   16.3940 H     1175  NAG1175     0.2095
    117  H          2.3570  -16.5670   16.7290 H     1175  NAG1175     0.0647
    118  H         11.6560  -15.3740    0.3460 H     1180  BDP1180     0.0938
    119  H         10.4630  -14.8230   12.4020 H     1177  NAG1177     0.0647
    120  H         11.9400   -7.8950    1.0510 H     1179  NAG1179     0.2095
    121  H         11.8620  -14.1760   10.5550 H     1177  NAG1177     0.2100
    122  H          4.2380  -12.2990   12.7730 H     1176  BDP1176     0.2951
    123  H          6.8280  -18.2810   -5.8210 H     1181  NAG1181     0.2095
    124  H          0.0220  -15.6940   21.1800 H     1175  NAG1175     0.2125
    125  H         12.2650  -13.6950    1.3550 H     1179  NAG1179     0.0644
    126  H         11.2750  -19.9490   -8.7600 H     1181  NAG1181     0.2100
    127  H         10.0460  -16.0880    4.9800 H     1179  NAG1179     0.0322
    128  H          8.7370  -16.8610    4.1180 H     1179  NAG1179     0.0322
    129  H          8.4040  -15.5400    5.2120 H     1179  NAG1179     0.0322
    130  H          0.0960  -14.7320   17.4250 H     1175  NAG1175     0.0647
    131  H          7.4150  -12.7060   10.3960 H     1177  NAG1177     0.1492
    132  H          9.5040  -17.7550   -3.3410 H     1180  BDP1180     0.2100
    133  H         -0.2020  -16.3430   15.5180 H     1175  NAG1175     0.0584
    134  H          0.0410  -17.6460   16.6430 H     1175  NAG1175     0.0584
    135  H         10.7380  -17.5960   -1.3450 H     1180  BDP1180     0.0648
    136  H         13.1250  -20.1670   -8.1610 H     1181  NAG1181     0.2100
    137  H         10.8080  -11.1620    0.6580 H     1179  NAG1179     0.0647
    138  H          9.0790  -11.0130    6.4610 H     1178  BDP1178     0.0648
    139  H          9.6400   -8.6740    8.0100 H     1178  BDP1178     0.2101
    140  H          6.7700  -15.1330   17.2040 H     1176  BDP1176     0.0671
    141  H         13.3170  -12.2130   -0.1260 H     1179  NAG1179     0.2100
    142  H         10.9120  -20.3060   -6.4850 H     1181  NAG1181     0.0646
    143  H         12.9650  -16.1230   -1.2800 H     1180  BDP1180     0.0742
    144  H          3.0410  -16.2250   19.4890 H     1175  NAG1175     0.0575
    145  H         14.0990  -18.5100   -2.7770 H     1181  NAG1181     0.0322
    146  H         15.8390  -18.4660   -2.6200 H     1181  NAG1181     0.0322
    147  H         15.0290  -19.9790   -2.9520 H     1181  NAG1181     0.0322
    148  H          9.2840  -12.2370    8.6270 H     1178  BDP1178     0.0938
    149  H          9.2110  -15.0780   -1.3340 H     1180  BDP1180     0.0671
    150  H          1.4880  -14.0070   15.7950 H     1175  NAG1175     0.2100
    151  H         12.6150  -13.7290   -3.8080 H     1180  BDP1180     0.2951
    152  H         13.2860   -9.0850    2.4900 H     1179  NAG1179     0.0584
    153  H         13.4940   -9.5750    0.8160 H     1179  NAG1179     0.0584
    154  H          9.7080  -12.6780    2.4830 H     1179  NAG1179     0.0575
    155  H         13.4880  -13.2310    7.5170 H     1178  BDP1178     0.2951
    156  H         11.4090  -10.1280    8.1360 H     1178  BDP1178     0.0671
    157  H          2.7450  -13.8440   17.6830 H     1175  NAG1175     0.0644
    158  H         12.7880  -19.5070   -4.7710 H     1181  NAG1181     0.0575
    159  H          8.4120  -19.3840   -7.0750 H     1181  NAG1181     0.0584
    160  H          8.5830  -19.6960   -5.3600 H     1181  NAG1181     0.0584
    161  H          8.2380  -14.0830   12.5030 H     1177  NAG1177     0.0930
    162  H         13.3380  -11.5220    2.2050 H     1179  NAG1179     0.0647
    163  H         10.0770  -13.5180    6.8910 H     1178  BDP1178     0.0742
    164  H          0.7550  -14.2970   19.5230 H     1175  NAG1175     0.0928
    165  H         10.0820  -17.4600   -6.6900 H     1181  NAG1181     0.0647
    166  H          8.7380  -14.8170   16.0550 H     1176  BDP1176     0.2100
    167  H          8.9920  -11.1850   12.3620 H     1177  NAG1177     0.0575
    168  H          5.0930  -12.6560   14.7240 H     1176  BDP1176     0.0742
    169  H          6.2660  -12.4390   18.0840 H     1176  BDP1176     0.2101
    170  H         12.6520  -18.0500   -7.3700 H     1181  NAG1181     0.0640
    171  H         11.7750  -16.6990   -5.2410 H     1181  NAG1181     0.0930
@<TRIPOS>BOND
     1     1    89    1
     2     1    94    1
     3     1    95    1
     4     1    96    1
     5     2     7    1
     6     2    45   am
     7     2    37    2
     8     3    93    1
     9     3    71    1
    10     3    39    1
    11     3    97    1
    12     4    83    1
    13     4    56    1
    14     4    49    1
    15     4    98    1
    16     5    15    1
    17     5    87    1
    18     5    58    1
    19     5    99    1
    20     6    66    1
    21     6   100    1
    22     7   101    1
    23     7   102    1
    24     7   103    1
    25     8    63    1
    26     8    89   am
    27     8   104    1
    28     9    86    1
    29     9    11    1
    30     9    29    1
    31     9   105    1
    32    10    89    2
    33    11    27    1
    34    11    32    1
    35    11   106    1
    36    12    54    1
    37    12   107    1
    38    13    71    1
    39    13    38   am
    40    13   108    1
    41    14    44    2
    42    15    56    1
    43    15    85    1
    44    15   109    1
    45    16    27    1
    46    16    21    1
    47    16   110    1
    48    16   111    1
    49    17    60    2
    50    18    54    1
    51    18    81    1
    52    18    93    1
    53    18   112    1
    54    19    76    1
    55    19    73   am
    56    19   113    1
    57    20    51    1
    58    20    61    1
    59    20    91    1
    60    20   114    1
    61    21   115    1
    62    22    50    1
    63    22   116    1
    64    23    47    2
    65    24    73    2
    66    25    75    1
    67    25    42    1
    68    25    67    1
    69    25   117    1
    70    26    30    1
    71    26    66    1
    72    26    46    1
    73    26   118    1
    74    27    28    1
    75    27   119    1
    76    28    78    1
    77    29    65    1
    78    30    36    1
    79    31    69    1
    80    31   120    1
    81    32   121    1
    82    33    60    1
    83    33   122    1
    84    34    77    1
    85    34   123    1
    86    35    82    1
    87    35   124    1
    88    36    71    1
    89    36    53    1
    90    36   125    1
    91    38    41    1
    92    38    70    2
    93    39    79    1
    94    40    59    1
    95    40   126    1
    96    41   127    1
    97    41   128    1
    98    41   129    1
    99    42    50    1
   100    42    62    1
   101    42   130    1
   102    43    92    1
   103    43    84    1
   104    44    81    1
   105    44    72    1
   106    45    86    1
   107    45   131    1
   108    46    61    1
   109    47    61    1
   110    47    68    1
   111    48    51    1
   112    48   132    1
   113    49    87    1
   114    50   133    1
   115    50   134    1
   116    51    66    1
   117    51   135    1
   118    52    90    1
   119    52   136    1
   120    53    79    1
   121    53    57    1
   122    53   137    1
   123    54    74    1
   124    54   138    1
   125    55    74    1
   126    55   139    1
   127    56    88    1
   128    56   140    1
   129    57   141    1
   130    58    78    1
   131    59    90    1
   132    59    84    1
   133    59   142    1
   134    60    87    1
   135    61   143    1
   136    62    82    1
   137    63    82    1
   138    63    75    1
   139    63   144    1
   140    64    73    1
   141    64   145    1
   142    64   146    1
   143    64   147    1
   144    65    74    1
   145    65    80    1
   146    65   148    1
   147    66   149    1
   148    67   150    1
   149    68   151    1
   150    69    79    1
   151    69   152    1
   152    69   153    1
   153    71   154    1
   154    72   155    1
   155    74   156    1
   156    75    83    1
   157    75   157    1
   158    76    92    1
   159    76    90    1
   160    76   158    1
   161    77    84    1
   162    77   159    1
   163    77   160    1
   164    78    86    1
   165    78   161    1
   166    79   162    1
   167    80    81    1
   168    81   163    1
   169    82   164    1
   170    84   165    1
   171    85   166    1
   172    86   167    1
   173    87   168    1
   174    88   169    1
   175    90   170    1
   176    91    92    1
   177    92   171    1
