@<TRIPOS>MOLECULE
2LVZ_LIGAND_1_uncharged.pdb
 3192 2425 0 0 0
SMALL
GASTEIGER

@<TRIPOS>ATOM
      1  H3       -28.3040   25.6130   36.2070 H     201  LVZ201      0.0254
      2  H3       -28.3150   26.0140   33.9750 H     201  LVZ201      0.0529
      3  H3       -27.6490   25.0270   34.6720 H     201  LVZ201      0.0194
      4  H3       -26.8870   24.9430   34.7480 H     201  LVZ201      0.0194
      5  H3       -27.9530   24.8610   34.5240 H     201  LVZ201      0.0000
      6  H3       -28.7540   25.8420   33.5200 H     201  LVZ201      0.0194
      7  H3       -29.2190   26.3310   34.8320 H     201  LVZ201      0.0000
      8  H3       -27.3770   24.6400   35.5200 H     201  LVZ201      0.0000
      9  H3       -28.3790   25.7880   36.2970 H     201  LVZ201      0.0000
     10  H3       -28.9060   25.6970   36.1870 H     201  LVZ201      0.0000
     11  H3       -30.1160   25.9980   34.3430 H     201  LVZ201      0.0000
     12  H3       -29.1330   27.2120   33.1030 H     201  LVZ201      0.0260
     13  H3       -29.0140   25.6920   35.1010 H     201  LVZ201      0.0227
     14  H3       -28.7500   25.4290   34.0220 H     201  LVZ201      0.0000
     15  H3       -30.0970   26.1260   35.2450 H     201  LVZ201      0.0000
     16  H3       -27.2980   24.9290   34.2280 H     201  LVZ201      0.0000
     17  H3       -29.1260   26.6330   33.6780 H     201  LVZ201      0.0194
     18  H3       -25.4340   26.5660   35.6490 H     201  LVZ201      0.0000
     19  H3       -29.8000   26.8070   33.8300 H     201  LVZ201      0.0000
     20  H3       -29.4950   26.0380   36.2820 H     201  LVZ201      0.0000
     21  H3A      -29.2870   26.2390   34.8360 H     201  LVZ201      0.0254
     22  H3A      -26.8900   24.9060   33.9100 H     201  LVZ201      0.0194
     23  H3A      -27.5440   25.6120   36.3510 H     201  LVZ201      0.0000
     24  H3A      -27.4410   25.5370   36.3150 H     201  LVZ201      0.0000
     25  H3A      -29.3420   25.7340   35.1170 H     201  LVZ201      0.0000
     26  H3A      -27.6900   24.6830   34.2930 H     201  LVZ201      0.0000
     27  H3A      -28.8290   26.4440   33.1840 H     201  LVZ201      0.0194
     28  H3A      -28.5920   25.7350   36.2950 H     201  LVZ201      0.0000
     29  H3A      -29.4990   26.1500   34.9080 H     201  LVZ201      0.0194
     30  H3A      -29.1160   25.7680   34.3860 H     201  LVZ201      0.0194
     31  H3A      -28.4780   25.3290   34.5040 H     201  LVZ201      0.0230
     32  H3A      -28.3400   25.6380   33.0610 H     201  LVZ201      0.0000
     33  H3A      -29.0960   26.7940   33.7500 H     201  LVZ201      0.0260
     34  H3A      -29.3110   25.8390   35.6990 H     201  LVZ201      0.0000
     35  H3A      -28.5480   25.3530   35.2340 H     201  LVZ201      0.0000
     36  H3A      -25.5740   25.1700   33.8480 H     201  LVZ201      0.0000
     37  H3A      -28.0330   25.3110   33.6350 H     201  LVZ201      0.0000
     38  H3A      -26.3890   25.4570   34.6710 H     201  LVZ201      0.0000
     39  H3A      -28.9780   28.1780   33.0980 H     201  LVZ201      0.0194
     40  H3A      -30.1710   26.2510   34.6840 H     201  LVZ201      0.0000
     41  O4       -35.0960   39.6840   38.3730 O.3   203  SGN203     -0.3865
     42  O4       -33.3450   38.7080   39.2770 O.3   203  SGN203     -0.2528
     43  O4       -33.4240   39.4150   38.5660 O.3   203  SGN203     -0.0046
     44  O4       -33.8070   39.0400   38.5700 O.3   203  SGN203     -0.4105
     45  O4       -33.2850   39.5410   38.7420 O.3   203  SGN203     -0.4105
     46  O4       -33.7140   39.0680   38.9530 O.3   203  SGN203     -0.0383
     47  O4       -33.9770   39.2250   38.6350 O.3   203  SGN203     -0.0383
     48  O4       -32.9600   38.8460   38.3440 O.3   203  SGN203     -0.2026
     49  O4       -33.2820   39.7660   38.6020 O.3   203  SGN203     -0.2059
     50  O4       -33.1560   39.0850   38.6210 O.3   203  SGN203     -0.0332
     51  O4       -34.1220   39.4790   38.2560 O.3   203  SGN203     -0.4105
     52  O4       -33.7920   39.9500   38.5290 O.3   203  SGN203     -0.4105
     53  O4       -33.6750   39.7390   38.5130 O.3   203  SGN203     -0.0335
     54  O4       -33.7890   39.6430   38.6360 O.3   203  SGN203     -0.2179
     55  O4       -33.5710   40.5450   39.3480 O.3   203  SGN203     -0.4105
     56  O4       -33.8310   37.8740   38.8380 O.2   203  SGN203     -0.3047
     57  O4       -33.7840   38.8390   39.3560 O.3   203  SGN203     -0.2528
     58  O4       -33.9620   38.7310   39.0360 O.3   203  SGN203     -0.2179
     59  O4       -33.1380   39.7710   39.9370 O.3   203  SGN203     -0.4105
     60  O4       -32.8040   39.7500   39.8730 O.3   203  SGN203     -0.4105
     61  C2       -26.8390   27.6410   33.7170 C.3   201  LVZ201     -0.0388
     62  C2       -26.1560   27.6080   33.3270 C.3   201  LVZ201     -0.0531
     63  C2       -27.4090   26.9750   33.2680 C.3   201  LVZ201     -0.0655
     64  C2       -27.5480   27.2340   33.1660 C.3   201  LVZ201     -0.0655
     65  C2       -26.1740   27.1550   34.3620 C.3   201  LVZ201     -0.0776
     66  C2       -26.5500   27.0940   33.3010 C.3   201  LVZ201     -0.0528
     67  C2       -26.5100   27.5780   33.3400 C.3   201  LVZ201     -0.0650
     68  C2       -26.7180   26.8590   33.6040 C.3   201  LVZ201     -0.0385
     69  C2       -27.4980   27.6910   33.4530 C.3   201  LVZ201     -0.0588
     70  C2       -26.8240   27.0550   33.9620 C.3   201  LVZ201     -0.0497
     71  C2       -29.0450   27.7940   32.7970 C.3   201  LVZ201     -0.0776
     72  C2       -26.4740   27.4910   33.7180 C.3   201  LVZ201     -0.0559
     73  C2       -26.5980   27.7280   33.6600 C.3   201  LVZ201     -0.0776
     74  C2       -27.1930   27.5620   33.7170 C.3   201  LVZ201     -0.0655
     75  C2       -28.7420   27.6450   33.4730 C.3   201  LVZ201     -0.0655
     76  C2       -27.2150   27.1220   32.5060 C.3   201  LVZ201     -0.0655
     77  C2       -26.6020   27.5490   33.4950 C.3   201  LVZ201     -0.0531
     78  C2       -27.4040   27.2980   32.8720 C.3   201  LVZ201     -0.0588
     79  C2       -26.3460   27.1030   34.3590 C.3   201  LVZ201     -0.0559
     80  C2       -27.8620   27.2740   33.4680 C.3   201  LVZ201     -0.0776
     81  O4       -31.7460   37.4030   36.0900 O.3   202  IDS202     -0.3410
     82  O4       -31.1820   36.8450   35.8520 O.3   202  IDS202     -0.2203
     83  O4       -30.9170   37.3850   35.6390 O.2   202  IDS202      0.0000
     84  O4       -31.4440   36.9640   35.6310 O.3   202  IDS202     -0.4105
     85  O4       -30.8580   37.0940   35.8800 O.3   202  IDS202     -0.0717
     86  O4       -30.8600   37.1890   35.8770 O.3   202  IDS202     -0.2201
     87  O4       -30.7910   37.3740   35.8520 O.3   202  IDS202     -0.4105
     88  O4       -30.0640   37.0860   35.3220 O.3   202  IDS202     -0.4105
     89  O4       -30.4040   37.2890   36.0020 O.3   202  IDS202     -0.2203
     90  O4       -30.3380   37.1890   35.5560 O.3   202  IDS202     -0.2203
     91  O4       -30.7740   37.3190   35.8110 O.3   202  IDS202     -0.0717
     92  O4       -30.9320   37.4540   35.9100 O.3   202  IDS202     -0.4105
     93  O4       -30.7390   37.4430   36.0890 O.3   202  IDS202     -0.2203
     94  O4       -31.2790   37.5810   35.8730 O.2   202  IDS202      0.0000
     95  O4       -31.2010   37.6350   36.6430 O.2   202  IDS202      0.0000
     96  O4       -30.5110   36.5950   35.8810 O.3   202  IDS202     -0.3950
     97  O4       -31.0210   37.1220   36.2880 O.3   202  IDS202     -0.0690
     98  O4       -31.0690   36.7710   36.0870 O.3   202  IDS202     -0.2047
     99  O4       -31.0020   37.1440   36.7360 O.2   202  IDS202      0.0000
    100  O4       -30.8030   37.1370   36.7910 O.3   202  IDS202     -0.4105
    101  O2S      -27.5870   34.9880   30.7760 O.3   202  IDS202     -0.1398
    102  O2S      -27.3170   34.8360   30.4320 O.2   202  IDS202      0.0000
    103  O2S      -28.0070   35.1740   29.8420 O.3   202  IDS202      0.0000
    104  O2S      -26.9530   34.5050   31.0830 O.3   202  IDS202     -0.0212
    105  O2S      -26.8110   34.1410   30.7660 O.3   202  IDS202     -0.0007
    106  O2S      -28.1610   34.1170   31.0810 O.3   202  IDS202      0.0000
    107  O2S      -28.4360   34.3290   31.0620 O.2   202  IDS202      0.0000
    108  O2S      -25.9940   34.1230   30.5530 O.3   202  IDS202      0.0000
    109  O2S      -26.7070   34.3040   31.1100 O.3   202  IDS202      0.0000
    110  O2S      -27.6890   34.0260   30.7390 O.3   202  IDS202     -0.0589
    111  O2S      -27.0600   34.9170   31.6620 O.2   202  IDS202     -0.2278
    112  O2S      -27.2480   34.1370   30.7110 O.3   202  IDS202     -0.0096
    113  O2S      -25.9950   35.2440   31.5280 O.3   202  IDS202      0.0000
    114  O2S      -26.7820   34.9220   31.1190 O.2   202  IDS202      0.0000
    115  O2S      -27.8940   34.8150   31.1930 O.3   202  IDS202     -0.2026
    116  O2S      -27.8030   33.4280   30.7670 O.2   202  IDS202     -0.3428
    117  O2S      -26.6990   34.8230   30.9840 O.3   202  IDS202     -0.1172
    118  O2S      -29.4860   33.7790   30.9470 O.3   202  IDS202     -0.0212
    119  O2S      -27.0730   35.1790   31.4580 O.2   202  IDS202      0.0000
    120  O2S      -27.5630   35.1660   30.8760 O.2   202  IDS202      0.0000
    121  O6S      -35.9900   36.1770   38.8650 O.3   203  SGN203     -0.0870
    122  O6S      -35.0740   35.5600   39.4360 O.2   203  SGN203      0.0000
    123  O6S      -36.0980   35.8450   38.0360 O.2   203  SGN203     -0.2278
    124  O6S      -35.4900   36.6340   39.0310 O.3   203  SGN203     -0.0000
    125  O6S      -35.2230   35.9490   39.2880 O.2   203  SGN203      0.0000
    126  O6S      -34.8560   35.6890   39.3580 O.3   203  SGN203      0.0000
    127  O6S      -35.2150   35.9980   39.0540 O.3   203  SGN203     -0.0000
    128  O6S      -35.6510   36.5380   38.2760 O.3   203  SGN203     -0.0162
    129  O6S      -36.9190   36.0300   38.5430 O.2   203  SGN203      0.0000
    130  O6S      -37.0720   36.1380   38.4450 O.2   203  SGN203      0.0000
    131  O6S      -37.3710   36.2270   38.8050 O.3   203  SGN203      0.0000
    132  O6S      -37.3790   36.7650   38.1140 O.3   203  SGN203      0.0000
    133  O6S      -36.9810   36.2920   37.7940 O.3   203  SGN203     -0.0853
    134  O6S      -36.1740   36.5560   38.0590 O.3   203  SGN203     -0.0691
    135  O6S      -38.0040   37.7110   38.3910 O.3   203  SGN203     -0.0000
    136  O6S      -36.8050   36.0620   38.3180 O.3   203  SGN203      0.0000
    137  O6S      -37.7870   35.8140   37.1620 O.3   203  SGN203     -0.0163
    138  O6S      -37.5190   35.3850   37.5960 O.3   203  SGN203     -0.0000
    139  O6S      -37.5790   36.3760   38.3220 O.3   203  SGN203      0.0000
    140  O6S      -36.1490   34.4440   38.7610 O.3   203  SGN203      0.0000
    141  N9       -29.4980   28.8340   38.0080 N.3   201  LVZ201     -0.1775
    142  N9       -29.2070   28.5830   37.6110 N.2   201  LVZ201     -0.2112
    143  N9       -29.1380   29.2310   37.7300 N.3   201  LVZ201     -0.1573
    144  N9       -29.0670   28.8390   38.1100 N.3   201  LVZ201     -0.1564
    145  N9       -29.1750   28.9100   38.1400 N.3   201  LVZ201     -0.1802
    146  N9       -29.2960   28.8560   37.5970 N.3   201  LVZ201     -0.1577
    147  N9       -29.2710   29.1930   37.7710 N.3   201  LVZ201     -0.2505
    148  N9       -28.7120   28.9460   37.9160 N.3   201  LVZ201     -0.1399
    149  N9       -29.3510   28.9450   38.4120 N.3   201  LVZ201     -0.2377
    150  N9       -29.4640   28.8590   38.0310 N.4   201  LVZ201      0.4871
    151  N9       -29.2930   28.9730   38.1010 N.1   201  LVZ201      0.0000
    152  N9       -29.5280   29.0160   37.6960 N.3   201  LVZ201     -0.1446
    153  N9       -29.0350   29.1900   38.1260 N.3   201  LVZ201     -0.2533
    154  N9       -29.6400   29.1670   38.0980 N.3   201  LVZ201     -0.1446
    155  N9       -29.2900   29.2200   38.4950 N.1   201  LVZ201      0.0000
    156  N9       -28.7570   28.3030   37.6250 N.3   201  LVZ201     -0.3437
    157  N9       -29.0660   28.6190   37.8810 N.3   201  LVZ201     -0.2558
    158  N9       -28.8300   28.7250   37.8140 N.2   201  LVZ201     -0.2112
    159  N9       -29.2090   28.9970   38.0400 N.3   201  LVZ201     -0.0820
    160  N9       -28.8400   29.0170   38.3410 N.3   201  LVZ201     -0.1616
    161  H3       -29.9420   37.0650   34.1970 H     202  IDS202      0.0649
    162  H3       -29.5180   36.7660   34.0480 H     202  IDS202      0.0299
    163  H3       -29.5160   37.0170   33.5880 H     202  IDS202      0.0000
    164  H3       -29.8090   36.6230   34.0120 H     202  IDS202      0.0000
    165  H3       -29.3090   36.7400   34.1540 H     202  IDS202      0.0000
    166  H3       -28.7100   36.9030   34.7920 H     202  IDS202      0.0000
    167  H3       -28.8690   37.3020   34.5230 H     202  IDS202      0.0000
    168  H3       -28.4850   36.2840   33.6280 H     202  IDS202      0.0000
    169  H3       -29.2120   36.6330   33.9900 H     202  IDS202      0.0194
    170  H3       -28.5250   36.6350   34.0140 H     202  IDS202      0.0000
    171  H3       -28.6930   37.0170   34.6730 H     202  IDS202      0.0000
    172  H3       -29.0450   37.1580   34.2010 H     202  IDS202      0.0000
    173  H3       -28.9370   37.1960   34.5690 H     202  IDS202      0.0000
    174  H3       -29.4790   37.1000   34.1860 H     202  IDS202      0.0235
    175  H3       -29.7430   37.2640   35.0220 H     202  IDS202      0.2052
    176  H3       -28.5220   36.1460   34.4720 H     202  IDS202      0.0000
    177  H3       -29.0360   36.8840   34.9100 H     202  IDS202      0.0000
    178  H3       -29.6260   36.6660   34.1480 H     202  IDS202      0.0194
    179  H3       -29.6590   36.8240   34.7490 H     202  IDS202      0.0000
    180  H3       -29.0800   36.9220   35.1090 H     202  IDS202      0.0000
    181  H2A      -27.6480   28.0730   33.1290 H     201  LVZ201      0.0254
    182  H2A      -26.9460   28.1470   32.8060 H     201  LVZ201      0.0000
    183  H2A      -28.4020   26.6600   32.9450 H     201  LVZ201      0.0000
    184  H2A      -28.5170   26.8450   32.8530 H     201  LVZ201      0.0000
    185  H2A      -25.5880   28.0190   34.6780 H     201  LVZ201      0.0000
    186  H2A      -27.3510   27.2830   32.5860 H     201  LVZ201      0.0000
    187  H2A      -27.1270   28.0090   32.5520 H     201  LVZ201      0.0000
    188  H2A      -27.5690   27.4060   33.1980 H     201  LVZ201      0.0194
    189  H2A      -27.3950   26.8040   32.8280 H     201  LVZ201      0.0230
    190  H2A      -27.5020   27.7330   33.4440 H     201  LVZ201      0.0000
    191  H2A      -28.4970   28.6880   32.5000 H     201  LVZ201      0.0000
    192  H2A      -25.6510   28.0460   34.1690 H     201  LVZ201      0.0000
    193  H2A      -25.7700   28.3410   34.0140 H     201  LVZ201      0.0000
    194  H2A      -26.3540   28.2400   33.8730 H     201  LVZ201      0.0194
    195  H2A      -28.8280   28.6400   33.0380 H     201  LVZ201      0.0000
    196  H2A      -27.4270   28.1670   32.2800 H     201  LVZ201      0.0000
    197  H2A      -25.6650   27.9530   33.8770 H     201  LVZ201      0.0000
    198  H2A      -27.9920   28.1710   32.5890 H     201  LVZ201      0.0000
    199  H2A      -26.1830   26.1320   33.8900 H     201  LVZ201      0.0194
    200  H2A      -28.8250   27.4950   33.0090 H     201  LVZ201      0.0194
    201  H4       -34.9010   40.0770   36.3700 H     203  SGN203      0.0646
    202  H4       -33.9670   39.7960   37.6190 H     203  SGN203      0.0000
    203  H4       -33.7930   40.4440   36.7320 H     203  SGN203      0.0000
    204  H4       -34.2050   40.1570   36.9430 H     203  SGN203      0.0000
    205  H4       -33.7180   40.2870   36.8440 H     203  SGN203      0.0000
    206  H4       -33.9580   39.8640   37.0190 H     203  SGN203      0.0227
    207  H4       -34.1160   40.1130   36.7460 H     203  SGN203      0.0000
    208  H4       -33.2030   39.9400   36.5800 H     203  SGN203      0.0268
    209  H4       -33.4670   40.4190   36.6720 H     203  SGN203      0.0000
    210  H4       -33.3890   40.1520   36.9230 H     203  SGN203      0.0227
    211  H4       -34.0220   40.0120   36.3090 H     203  SGN203      0.0000
    212  H4       -33.7390   40.5480   36.6110 H     203  SGN203      0.0000
    213  H4       -33.7470   40.6620   36.5890 H     203  SGN203      0.0000
    214  H4       -34.0040   40.8130   36.8370 H     203  SGN203      0.0000
    215  H4       -33.7230   41.2550   37.4560 H     203  SGN203      0.0000
    216  H4       -33.8400   39.0260   37.1480 H     203  SGN203      0.0194
    217  H4       -34.3710   39.8020   37.5690 H     203  SGN203      0.0000
    218  H4       -34.2610   39.5690   37.1770 H     203  SGN203      0.0000
    219  H4       -33.9160   40.2620   38.1590 H     203  SGN203      0.2052
    220  H4       -33.5730   40.1920   37.9380 H     203  SGN203      0.0000
    221  C3       -28.2890   25.9650   35.1760 C.3   201  LVZ201     -0.0388
    222  C3       -27.4170   25.6650   34.4870 C.3   201  LVZ201     -0.0776
    223  C3       -27.9510   25.8150   35.3610 C.1   201  LVZ201     -0.1225
    224  C3       -27.5940   25.6120   35.2390 C.1   201  LVZ201     -0.1225
    225  C3       -28.3470   25.8640   34.6880 C.3   201  LVZ201     -0.0655
    226  C3       -28.1910   25.6400   34.4320 C.3   201  LVZ201     -0.0655
    227  C3       -28.3720   26.2430   34.1520 C.3   201  LVZ201     -0.0776
    228  C3       -28.0010   25.5250   35.4030 C.3   201  LVZ201     -0.0681
    229  C3       -28.4750   25.9520   35.2240 C.3   201  LVZ201     -0.0776
    230  C3       -28.4130   25.6920   35.2140 C.3   201  LVZ201     -0.0681
    231  C3       -29.1230   26.1690   34.7620 C.3   201  LVZ201     -0.0776
    232  C3       -28.6640   26.4450   33.7180 C.3   201  LVZ201     -0.0776
    233  C3       -28.4040   26.2550   34.3960 C.2   201  LVZ201     -0.1058
    234  C3       -29.0690   26.2170   34.7050 C.2   201  LVZ201     -0.1058
    235  C3       -29.0600   26.2620   35.5520 C.3   201  LVZ201     -0.0681
    236  C3       -26.4180   25.5410   34.4300 C.3   201  LVZ201     -0.0776
    237  C3       -28.4260   26.0790   34.3020 C.3   201  LVZ201     -0.0588
    238  C3       -25.8270   26.3910   34.6480 C.3   201  LVZ201     -0.0776
    239  C3       -28.8280   27.1800   33.5090 C.3   201  LVZ201     -0.0588
    240  C3       -29.2560   26.0010   35.2190 C.3   201  LVZ201     -0.0681
    241  O1S      -30.3440   39.9720   33.5990 O.3   203  SGN203     -0.0855
    242  O1S      -29.9350   39.2240   33.6130 O.3   203  SGN203      0.0000
    243  O1S      -29.3340   39.6000   33.0900 O.3   203  SGN203      0.0000
    244  O1S      -29.7730   39.1440   33.1380 O.3   203  SGN203      0.0000
    245  O1S      -30.2950   39.5580   32.9100 O.2   203  SGN203      0.0000
    246  O1S      -29.7150   39.5690   33.3820 O.3   203  SGN203      0.0000
    247  O1S      -29.5270   39.6690   33.3830 O.2   203  SGN203      0.0000
    248  O1S      -28.2350   39.3940   33.2830 O.2   203  SGN203      0.0000
    249  O1S      -28.1210   38.5770   34.0570 O.3   203  SGN203      0.0000
    250  O1S      -28.9560   39.8590   33.0270 O.3   203  SGN203      0.0000
    251  O1S      -29.1300   39.6110   33.2780 O.2   203  SGN203      0.0000
    252  O1S      -29.5840   40.0040   33.3200 O.2   203  SGN203      0.0000
    253  O1S      -29.3590   39.3770   33.4810 O.3   203  SGN203      0.0000
    254  O1S      -29.1410   39.4450   33.4250 O.3   203  SGN203     -0.0000
    255  O1S      -29.6800   39.5110   33.5810 O.3   203  SGN203     -0.0000
    256  O1S      -29.6180   39.4640   33.7800 O.3   203  SGN203      0.0000
    257  O1S      -30.0110   39.6680   33.9200 O.3   203  SGN203     -0.0000
    258  O1S      -28.5970   40.5920   34.5100 O.3   203  SGN203     -0.1158
    259  O1S      -30.2620   39.3280   33.7710 O.3   203  SGN203     -0.0013
    260  O1S      -28.6870   40.9510   34.3170 O.3   203  SGN203     -0.0198
    261 H69A      -25.7460   32.5570   34.8730 H     201  LVZ201      0.0601
    262 H69A      -25.3340   32.3310   34.8850 H     201  LVZ201      0.0000
    263 H69A      -25.5980   32.2860   33.9640 H     201  LVZ201      0.0230
    264 H69A      -25.6510   32.0280   34.9000 H     201  LVZ201      0.0194
    265 H69A      -25.3800   32.1740   34.7830 H     201  LVZ201      0.0000
    266 H69A      -25.2570   32.1580   34.7010 H     201  LVZ201      0.0000
    267 H69A      -25.0050   32.0590   35.0060 H     201  LVZ201      0.0000
    268 H69A      -25.1500   32.1200   34.3510 H     201  LVZ201      0.2052
    269 H69A      -25.2930   32.0100   35.2170 H     201  LVZ201      0.0000
    270 H69A      -24.8800   31.2670   35.1170 H     201  LVZ201      0.2528
    271 H69A      -24.9250   31.3080   34.5230 H     201  LVZ201      0.2052
    272 H69A      -25.7230   32.5970   34.5870 H     201  LVZ201      0.0194
    273 H69A      -25.1260   32.4000   34.6670 H     201  LVZ201      0.0230
    274 H69A      -26.2500   32.7610   34.6040 H     201  LVZ201      0.0000
    275 H69A      -25.7940   32.6190   34.9380 H     201  LVZ201      0.0000
    276 H69A      -25.3760   31.9380   34.3150 H     201  LVZ201      0.0000
    277 H69A      -25.4830   32.4170   34.8420 H     201  LVZ201      0.0000
    278 H69A      -25.1910   32.7910   35.1350 H     201  LVZ201      0.0000
    279 H69A      -25.7730   33.0950   35.1590 H     201  LVZ201      0.0000
    280 H69A      -26.5510   32.0840   33.2150 H     201  LVZ201      0.0000
    281  H1       -27.8960   34.6100   35.0720 H     202  IDS202      0.0938
    282  H1       -27.6360   34.2440   34.4560 H     202  IDS202      0.0000
    283  H1       -27.7530   34.2190   34.1610 H     202  IDS202      0.0000
    284  H1       -28.1280   34.2180   35.0550 H     202  IDS202      0.0988
    285  H1       -27.4620   34.2010   34.8130 H     202  IDS202      0.0000
    286  H1       -27.2490   34.2910   35.2200 H     202  IDS202      0.0000
    287  H1       -27.0850   34.6780   34.9080 H     202  IDS202      0.0000
    288  H1       -26.9780   33.8810   34.3940 H     202  IDS202      0.0000
    289  H1       -27.4440   34.1320   35.1410 H     202  IDS202      0.0000
    290  H1       -26.9340   33.9850   35.2390 H     202  IDS202      0.0000
    291  H1       -27.2350   34.2250   35.9760 H     202  IDS202      0.0000
    292  H1       -27.6000   34.4180   34.7770 H     202  IDS202      0.0000
    293  H1       -27.1640   34.3820   35.5680 H     202  IDS202      0.0000
    294  H1       -27.9850   34.5640   35.3190 H     202  IDS202      0.0230
    295  H1       -27.9230   34.5310   35.6410 H     202  IDS202      0.0270
    296  H1       -27.0620   33.4560   34.6970 H     202  IDS202      0.0000
    297  H1       -27.2890   34.2640   35.3210 H     202  IDS202      0.0000
    298  H1       -27.3400   34.3150   34.7230 H     202  IDS202      0.0000
    299  H1       -27.6450   34.3890   35.0600 H     202  IDS202      0.0000
    300  H1       -27.1850   34.3990   35.2660 H     202  IDS202      0.0000
    301  O4S      -23.7330   32.0070   32.5410 O.3   201  LVZ201     -0.0914
    302  O4S      -23.3260   32.4380   33.2270 O.2   201  LVZ201      0.0000
    303  O4S      -23.9140   32.5530   32.2000 O.3   201  LVZ201      0.0000
    304  O4S      -23.5140   31.9170   32.7940 O.3   201  LVZ201      0.0000
    305  O4S      -23.4300   31.8870   33.0340 O.3   201  LVZ201     -0.0198
    306  O4S      -22.9210   32.3420   33.2530 O.2   201  LVZ201      0.0000
    307  O4S      -23.1360   31.8060   32.5680 O.3   201  LVZ201     -0.0000
    308  O4S      -22.6210   31.9070   32.8620 O.3   201  LVZ201      0.0000
    309  O4S      -23.6160   31.8210   32.5060 O.3   201  LVZ201      0.0000
    310  O4S      -23.2210   31.5440   32.8800 O.3   201  LVZ201     -0.0014
    311  O4S      -23.6680   30.5870   31.9250 O.2   201  LVZ201      0.0000
    312  O4S      -23.4370   32.3170   32.9900 O.3   201  LVZ201     -0.1158
    313  O4S      -23.3020   32.1250   32.4710 O.3   201  LVZ201      0.0000
    314  O4S      -24.5520   32.9720   32.6260 O.3   201  LVZ201      0.0000
    315  O4S      -23.8010   32.7430   33.1470 O.2   201  LVZ201      0.0000
    316  O4S      -23.2240   31.8120   32.6090 O.3   201  LVZ201      0.0000
    317  O4S      -23.3700   32.5000   33.0830 O.2   201  LVZ201      0.0000
    318  O4S      -23.5720   32.1520   32.3180 O.3   201  LVZ201      0.0000
    319  O4S      -23.8230   32.6120   32.2900 O.3   201  LVZ201      0.0000
    320  O4S      -23.9470   33.4310   32.7770 O.3   201  LVZ201      0.0000
    321  C6       -31.2940   35.5090   38.0590 C.3   202  IDS202      0.2560
    322  C6       -31.3340   34.4840   37.1580 C.3   202  IDS202     -0.0776
    323  C6       -31.0930   34.9940   37.3010 C.3   202  IDS202     -0.0469
    324  C6       -32.3090   34.5130   37.0300 C.3   202  IDS202      0.0748
    325  C6       -31.3780   34.6550   37.3990 C.3   202  IDS202     -0.0379
    326  C6       -31.4710   34.5680   37.0700 C.3   202  IDS202     -0.0154
    327  C6       -31.0400   35.0670   37.2840 C.3   202  IDS202     -0.0525
    328  C6       -30.6920   34.7720   37.0760 C.3   202  IDS202     -0.0499
    329  C6       -31.0120   35.0970   37.9210 C.3   202  IDS202     -0.0573
    330  C6       -31.1480   34.6570   36.9890 C.3   202  IDS202     -0.0379
    331  C6       -31.6200   35.0380   37.0820 C.3   202  IDS202      0.1024
    332  C6       -31.2720   35.0290   37.4090 C.3   202  IDS202     -0.0031
    333  C6       -31.1520   34.8860   37.6580 C.3   202  IDS202     -0.0499
    334  C6       -31.9530   35.1990   37.4850 C.3   202  IDS202      0.2153
    335  C6       -31.5310   35.4850   38.4700 C.3   202  IDS202     -0.0776
    336  C6       -30.3900   34.3520   37.5760 C.3   202  IDS202     -0.0358
    337  C6       -30.9750   34.7440   37.9670 C.3   202  IDS202     -0.0358
    338  C6       -30.7920   34.3780   37.7950 C.3   202  IDS202      0.0912
    339  C6       -30.7800   34.7320   38.4370 C.3   202  IDS202     -0.0776
    340  C6       -30.3540   34.7790   38.5760 C.3   202  IDS202      0.0748
    341  O61      -32.5120   35.5010   38.3030 O.3   202  IDS202     -0.1996
    342  O61      -32.5630   34.3850   37.2960 O.2   202  IDS202      0.0000
    343  O61      -32.3330   34.9900   37.3710 O.3   202  IDS202     -0.2009
    344  O61      -33.4760   34.4820   36.7590 O.3   202  IDS202     -0.2179
    345  O61      -32.6740   34.7010   37.3190 O.3   202  IDS202     -0.2082
    346  O61      -32.6820   34.3660   36.7670 O.3   202  IDS202     -0.2179
    347  O61      -32.3050   35.0000   37.2280 O.3   202  IDS202     -0.0662
    348  O61      -31.9350   34.7790   37.1490 O.3   202  IDS202     -0.2010
    349  O61      -32.2290   35.3030   38.1420 O.3   202  IDS202     -0.2179
    350  O61      -32.3330   34.5630   36.7010 O.3   202  IDS202     -0.0383
    351  O61      -32.7910   34.7050   36.7260 O.3   202  IDS202     -0.0383
    352  O61      -32.5070   34.9080   37.5420 O.2   202  IDS202      0.0000
    353  O61      -32.3120   35.3120   37.6460 O.3   202  IDS202     -0.2009
    354  O61      -33.1980   35.0470   37.3350 O.3   202  IDS202     -0.4105
    355  O61      -32.6420   35.9380   38.7690 O.3   202  IDS202     -0.2474
    356  O61      -31.6040   34.4480   37.8220 O.2   202  IDS202      0.0000
    357  O61      -32.2420   34.6440   38.0110 O.3   202  IDS202     -0.0359
    358  O61      -32.0280   34.4440   38.0730 O.2   202  IDS202      0.0000
    359  O61      -31.9360   34.7200   38.8620 O.3   202  IDS202     -0.0001
    360  O61      -31.4200   35.2520   39.0450 O.3   202  IDS202     -0.0025
    361  C19      -27.5180   29.3090   36.6250 C.3   201  LVZ201      0.1792
    362  C19      -27.1230   28.8650   36.2420 C.3   201  LVZ201     -0.0465
    363  C19      -27.3280   29.2340   35.9320 C.3   201  LVZ201     -0.0616
    364  C19      -27.2240   28.9050   36.2540 C.3   201  LVZ201     -0.0776
    365  C19      -27.3120   29.0390   36.5150 C.3   201  LVZ201     -0.0439
    366  C19      -27.1030   28.9180   36.1880 C.3   201  LVZ201     -0.0624
    367  C19      -27.3560   29.1930   36.1410 C.3   201  LVZ201     -0.0481
    368  C19      -26.6920   28.8070   36.3880 C.3   201  LVZ201     -0.0627
    369  C19      -27.4240   28.8800   36.7860 C.2   201  LVZ201     -0.1024
    370  C19      -27.3000   28.6750   36.8540 C.3   201  LVZ201     -0.0776
    371  C19      -27.7780   28.8210   36.1080 C.3   201  LVZ201     -0.0497
    372  C19      -27.5500   29.1500   36.0950 C.3   201  LVZ201     -0.0497
    373  C19      -27.1010   29.1300   36.5520 C.3   201  LVZ201     -0.0627
    374  C19      -27.7530   29.1590   36.4430 C.3   201  LVZ201     -0.0379
    375  C19      -27.7190   29.2370   36.4740 C.3   201  LVZ201     -0.0533
    376  C19      -26.8240   28.4250   35.8720 C.3   201  LVZ201     -0.0587
    377  C19      -27.2010   28.8960   36.3250 C.3   201  LVZ201     -0.0776
    378  C19      -26.9330   28.9180   36.1820 C.3   201  LVZ201     -0.0232
    379  C19      -27.2590   29.1320   36.3540 C.3   201  LVZ201     -0.0350
    380  C19      -27.2290   28.7670   36.4110 C.2   201  LVZ201     -0.0880
    381  HN       -30.3370   39.2840   35.9770 H     203  SGN203      0.1403
    382  HN       -29.5790   38.7580   35.9610 H     203  SGN203      0.0000
    383  HN       -29.3450   39.1610   35.3930 H     203  SGN203      0.0000
    384  HN       -29.8760   38.5610   35.4340 H     203  SGN203      0.0000
    385  HN       -29.5040   38.7560   35.4390 H     203  SGN203      0.0000
    386  HN       -29.5000   39.2290   35.8870 H     203  SGN203      0.0000
    387  HN       -29.4870   39.3310   35.9730 H     203  SGN203      0.0000
    388  HN       -28.5830   39.0570   35.4820 H     203  SGN203      0.0000
    389  HN       -28.6950   39.1770   36.3360 H     203  SGN203      0.0000
    390  HN       -28.8110   39.1240   35.4220 H     203  SGN203      0.1903
    391  HN       -29.3730   39.2840   35.7120 H     203  SGN203      0.0000
    392  HN       -29.4420   39.2880   35.7900 H     203  SGN203      0.0000
    393  HN       -29.0690   39.5510   36.0990 H     203  SGN203      0.1419
    394  HN       -29.5240   39.6880   36.0470 H     203  SGN203      0.1419
    395  HN       -29.4310   39.3230   36.0770 H     203  SGN203      0.1146
    396  HN       -29.2870   38.4160   36.0830 H     203  SGN203      0.0000
    397  HN       -29.6220   39.4460   36.2940 H     203  SGN203      0.0000
    398  HN       -29.9630   38.6320   35.4560 H     203  SGN203      0.0000
    399  HN       -29.6770   38.9550   36.3630 H     203  SGN203      0.0000
    400  HN       -29.5880   39.0020   35.7660 H     203  SGN203      0.0000
    401  H2B      -26.0110   28.3210   33.9190 H     201  LVZ201      0.0254
    402  H2B      -27.1400   27.9610   32.8890 H     201  LVZ201      0.0000
    403  H2B      -27.3340   28.2470   32.8270 H     201  LVZ201      0.0000
    404  H2B      -25.5700   26.2610   34.2160 H     201  LVZ201      0.0194
    405  H2B      -25.8780   27.9520   33.2960 H     201  LVZ201      0.0265
    406  H2B      -25.6210   28.1860   33.5150 H     201  LVZ201      0.0000
    407  H2B      -25.8020   27.4100   33.3930 H     201  LVZ201      0.0265
    408  H2B      -28.3790   28.1720   33.0280 H     201  LVZ201      0.0230
    409  H2B      -25.8550   27.5420   34.0670 H     201  LVZ201      0.0194
    410  H2B      -28.9050   27.0700   31.9940 H     201  LVZ201      0.0000
    411  H2B      -26.1230   26.5700   33.2500 H     201  LVZ201      0.0000
    412  H2B      -26.1720   26.9710   33.0030 H     201  LVZ201      0.0265
    413  H2B      -26.7900   26.6560   33.2620 H     201  LVZ201      0.0303
    414  H2B      -28.0040   27.1110   32.8760 H     201  LVZ201      0.0230
    415  H2B      -26.5780   26.6770   31.7420 H     201  LVZ201      0.0000
    416  H2B      -26.4410   26.7180   32.8090 H     201  LVZ201      0.0000
    417  H2B      -26.7760   26.8720   32.0900 H     201  LVZ201      0.0230
    418  H2B      -26.0670   27.8520   33.6180 H     201  LVZ201      0.0194
    419  H2B      -27.1810   28.1040   33.2800 H     201  LVZ201      0.0260
    420  C5       -30.9210   35.2380   36.5850 C.3   202  IDS202      0.1467
    421  C5       -30.7170   34.3960   35.7560 C.2   202  IDS202     -0.1026
    422  C5       -30.5060   34.9370   35.8410 C.1   202  IDS202     -0.1225
    423  C5       -31.3420   34.4840   35.8250 C.3   202  IDS202     -0.0776
    424  C5       -30.6200   34.6560   36.0640 C.2   202  IDS202     -0.0914
    425  C5       -30.4880   34.8040   35.8750 C.3   202  IDS202     -0.0776
    426  C5       -30.2760   35.0410   35.9420 C.3   202  IDS202     -0.0655
    427  C5       -30.0060   34.5770   35.7320 C.2   202  IDS202      0.1071
    428  C5       -30.4050   34.8060   36.4880 C.3   202  IDS202     -0.0776
    429  C5       -30.2290   34.6430   35.8130 C.1   202  IDS202     -0.1225
    430  C5       -30.5630   34.8540   35.9600 C.3   202  IDS202     -0.0655
    431  C5       -30.6600   35.0550   35.9940 C.3   202  IDS202     -0.0379
    432  C5       -30.3780   34.9410   36.3230 C.3   202  IDS202     -0.0588
    433  C5       -31.1170   35.1250   36.1880 C.3   202  IDS202     -0.0618
    434  C5       -31.0150   35.1650   37.0590 C.3   202  IDS202     -0.0573
    435  C5       -29.9920   34.1860   36.0530 C.3   202  IDS202     -0.0650
    436  C5       -30.3830   34.7740   36.5330 C.3   202  IDS202     -0.0176
    437  C5       -30.3010   34.3900   36.3010 C.3   202  IDS202     -0.0511
    438  C5       -30.5380   34.7260   36.9050 C.3   202  IDS202     -0.0602
    439  C5       -30.0700   34.6840   36.9840 C.3   202  IDS202      0.0852
    440  H59      -28.0920   30.6280   34.4910 H     201  LVZ201      0.0647
    441  H59      -27.4050   30.3080   33.9140 H     201  LVZ201      0.0000
    442  H59      -28.0220   30.4220   33.6630 H     201  LVZ201      0.0000
    443  H59      -27.7460   30.4000   33.8120 H     201  LVZ201      0.0000
    444  H59      -27.7510   30.2620   34.2540 H     201  LVZ201      0.0000
    445  H59      -27.4450   30.2790   33.8290 H     201  LVZ201      0.0000
    446  H59      -27.4260   30.5870   33.9040 H     201  LVZ201      0.0000
    447  H59      -27.2360   29.9110   33.9210 H     201  LVZ201      0.0000
    448  H59      -27.7180   30.3650   34.4940 H     201  LVZ201      0.0000
    449  H59      -27.3070   29.9330   34.4280 H     201  LVZ201      0.0000
    450  H59      -27.8510   30.5870   34.1500 H     201  LVZ201      0.0000
    451  H59      -27.9590   30.5860   33.7720 H     201  LVZ201      0.0000
    452  H59      -27.5650   30.5460   34.2060 H     201  LVZ201      0.0227
    453  H59      -28.4460   30.6200   34.3300 H     201  LVZ201      0.0000
    454  H59      -28.0470   30.6430   34.3030 H     201  LVZ201      0.0000
    455  H59      -27.5640   29.9350   33.8050 H     201  LVZ201      0.0000
    456  H59      -27.7530   30.4710   34.2200 H     201  LVZ201      0.0000
    457  H59      -26.8940   30.5730   34.0050 H     201  LVZ201      0.0230
    458  H59      -27.5430   30.8890   34.3850 H     201  LVZ201      0.0000
    459  H59      -27.9680   30.3160   34.3660 H     201  LVZ201      0.0000
    460  C4       -34.4430   39.4430   37.1290 C.3   203  SGN203      0.1110
    461  C4       -33.2900   38.9800   37.8760 C.3   203  SGN203      0.0862
    462  C4       -33.1790   39.6270   37.1120 C.3   203  SGN203     -0.0681
    463  C4       -33.6030   39.2760   37.1610 C.3   203  SGN203     -0.0776
    464  C4       -33.1320   39.5020   37.3230 C.3   203  SGN203     -0.0237
    465  C4       -33.3150   39.1600   37.5470 C.3   203  SGN203     -0.0324
    466  C4       -33.5400   39.3540   37.2790 C.3   203  SGN203     -0.0435
    467  C4       -32.6150   39.1130   36.9780 C.3   203  SGN203     -0.0776
    468  C4       -32.8140   39.7050   37.1770 C.3   203  SGN203     -0.0382
    469  C4       -32.8080   39.2860   37.2430 C.3   203  SGN203     -0.0619
    470  C4       -33.5050   39.2730   36.9210 C.3   203  SGN203     -0.0648
    471  C4       -33.2620   39.8180   37.2660 C.3   203  SGN203     -0.0528
    472  C4       -33.2970   39.8450   37.1510 C.3   203  SGN203     -0.0497
    473  C4       -33.5240   39.9180   37.2340 C.3   203  SGN203     -0.0681
    474  C4       -33.2560   40.4000   37.9440 C.3   203  SGN203     -0.0650
    475  C4       -33.2920   38.1720   37.5480 C.2   203  SGN203     -0.1058
    476  C4       -33.6220   39.0840   37.9060 C.3   203  SGN203     -0.0776
    477  C4       -33.6080   38.8420   37.6590 C.3   203  SGN203     -0.0230
    478  C4       -33.1390   39.5670   38.4750 C.3   203  SGN203     -0.0776
    479  C4       -32.8420   39.5490   38.4260 C.3   203  SGN203      0.0748
    480  C1       -32.5120   38.3620   35.2800 C.3   203  SGN203      0.1788
    481  C1       -31.9910   37.9890   35.4500 C.2   203  SGN203      0.1200
    482  C1       -31.6940   38.4040   35.0090 C.3   203  SGN203     -0.0776
    483  C1       -32.1700   38.1090   34.9540 C.3   203  SGN203     -0.0776
    484  C1       -31.6880   38.1430   35.2130 C.3   203  SGN203     -0.0001
    485  C1       -31.7460   38.2100   35.2660 C.3   203  SGN203     -0.0505
    486  C1       -31.6300   38.4390   35.2090 C.3   203  SGN203     -0.0681
    487  C1       -30.8420   38.2200   34.8270 C.3   203  SGN203     -0.0776
    488  C1       -31.0690   38.3720   35.3200 C.3   203  SGN203     -0.0497
    489  C1       -31.1640   38.2640   34.9170 C.3   203  SGN203     -0.0382
    490  C1       -31.5520   38.2850   34.9960 C.3   203  SGN203     -0.0776
    491  C1       -31.7370   38.5520   35.2880 C.3   203  SGN203     -0.0588
    492  C1       -31.4380   38.5070   35.2740 C.3   203  SGN203     -0.0497
    493  C1       -31.9580   38.6890   35.1040 C.3   203  SGN203     -0.0681
    494  C1       -31.9100   38.7410   35.9580 C.3   203  SGN203     -0.0622
    495  C1       -31.4310   37.6500   35.3380 C.3   203  SGN203     -0.0776
    496  C1       -31.8960   38.1810   35.6550 C.3   203  SGN203     -0.0467
    497  C1       -31.9710   37.7600   35.5220 C.3   203  SGN203     -0.0627
    498  C1       -31.9610   38.0670   36.1850 C.3   203  SGN203     -0.0627
    499  C1       -31.7100   38.1030   36.2050 C.3   203  SGN203     -0.0776
    500  H3B      -27.9810   25.2000   34.4620 H     201  LVZ201      0.0254
    501  H3B      -27.7660   25.2350   35.4270 H     201  LVZ201      0.0000
    502  H3B      -29.0400   25.8080   35.4160 H     201  LVZ201      0.0000
    503  H3B      -28.6210   25.3070   35.0410 H     201  LVZ201      0.0227
    504  H3B      -28.4010   26.1640   33.6420 H     201  LVZ201      0.0194
    505  H3B      -28.8610   25.7500   35.2840 H     201  LVZ201      0.0194
    506  H3B      -27.9650   25.2330   34.0840 H     201  LVZ201      0.0000
    507  H3B      -28.6780   25.4240   34.5540 H     201  LVZ201      0.0000
    508  H3B      -28.0770   25.1030   34.6680 H     201  LVZ201      0.0000
    509  H3B      -27.8790   24.7530   35.0680 H     201  LVZ201      0.0000
    510  H3B      -29.1640   26.1940   35.8510 H     201  LVZ201      0.0000
    511  H3B      -29.4770   26.0880   34.3500 H     201  LVZ201      0.0194
    512  H3B      -27.8960   25.5160   33.7750 H     201  LVZ201      0.0000
    513  H3B      -29.8510   26.7510   34.1650 H     201  LVZ201      0.0000
    514  H3B      -29.0610   26.1950   36.6400 H     201  LVZ201      0.0000
    515  H3B      -26.1740   25.4500   35.4890 H     201  LVZ201      0.0000
    516  H3B      -28.9160   25.5650   35.1300 H     201  LVZ201      0.0000
    517  H3B      -24.9890   26.1320   34.0010 H     201  LVZ201      0.0000
    518  H3B      -28.4900   26.4630   32.7600 H     201  LVZ201      0.0000
    519  H3B      -29.0430   24.9720   34.9240 H     201  LVZ201      0.0000
    520  H49      -27.8320   32.5410   36.8360 H     201  LVZ201      0.0650
    521  H49      -27.5380   32.3080   36.2000 H     201  LVZ201      0.0265
    522  H49      -27.4900   32.5470   35.6770 H     201  LVZ201      0.0000
    523  H49      -27.6340   32.2550   36.2060 H     201  LVZ201      0.0268
    524  H49      -27.5860   32.3020   36.4570 H     201  LVZ201      0.0000
    525  H49      -27.0850   32.2060   36.2390 H     201  LVZ201      0.0000
    526  H49      -27.1220   32.5020   36.2480 H     201  LVZ201      0.0000
    527  H49      -27.0620   31.9460   36.0320 H     201  LVZ201      0.0000
    528  H49      -27.3460   32.3710   36.7360 H     201  LVZ201      0.0000
    529  H49      -26.9440   31.9430   36.7010 H     201  LVZ201      0.0000
    530  H49      -26.9960   32.1640   36.6640 H     201  LVZ201      0.0000
    531  H49      -27.6280   32.4120   36.1460 H     201  LVZ201      0.0000
    532  H49      -27.0420   32.4870   36.5010 H     201  LVZ201      0.0000
    533  H49      -27.7930   32.5690   36.5250 H     201  LVZ201      0.0000
    534  H49      -27.5590   32.6430   36.7710 H     201  LVZ201      0.0000
    535  H49      -27.1590   31.7400   36.2110 H     201  LVZ201      0.0230
    536  H49      -27.3580   32.2280   36.5430 H     201  LVZ201      0.0000
    537  H49      -27.0140   32.4020   36.4710 H     201  LVZ201      0.0000
    538  H49      -27.2000   32.5700   36.8410 H     201  LVZ201      0.0000
    539  H49      -26.7070   32.3670   36.3140 H     201  LVZ201      0.0000
    540  O5       -29.4730   34.9960   36.4470 O.3   202  IDS202     -0.3375
    541  O5       -29.2200   34.3160   35.7650 O.3   202  IDS202     -0.2179
    542  O5       -29.0670   34.7260   35.6010 O.3   202  IDS202     -0.3642
    543  O5       -29.8620   34.2650   36.0960 O.2   202  IDS202     -0.3047
    544  O5       -29.1180   34.4660   36.1550 O.3   202  IDS202     -0.0383
    545  O5       -29.0880   34.5060   36.1770 O.3   202  IDS202     -0.4105
    546  O5       -28.7980   34.8750   36.2070 O.2   202  IDS202      0.0000
    547  O5       -28.5510   34.3040   35.7630 O.3   202  IDS202     -0.3642
    548  O5       -28.9520   34.6650   36.3430 O.2   202  IDS202      0.0000
    549  O5       -28.8020   34.4470   36.1070 O.2   202  IDS202      0.0000
    550  O5       -29.2320   34.6050   36.4350 O.3   202  IDS202     -0.2203
    551  O5       -29.2280   34.8330   36.0640 O.2   202  IDS202      0.0000
    552  O5       -28.9140   34.8540   36.5480 O.3   202  IDS202     -0.0717
    553  O5       -29.6890   34.9760   36.3900 O.3   202  IDS202     -0.4105
    554  O5       -29.5360   34.7580   36.9470 O.3   202  IDS202     -0.2371
    555  O5       -28.5300   34.0840   35.9060 O.2   202  IDS202     -0.3047
    556  O5       -28.9080   34.6980   36.4610 O.3   202  IDS202     -0.0383
    557  O5       -28.7780   34.5150   36.2220 O.3   202  IDS202     -0.2203
    558  O5       -29.0880   34.8600   36.6010 O.3   202  IDS202     -0.2501
    559  O5       -28.5990   34.4870   36.7790 O.3   202  IDS202     -0.2179
    560  O69      -25.8590   31.1160   33.4030 O.3   201  LVZ201     -0.2663
    561  O69      -25.0880   30.8770   33.2760 O.3   201  LVZ201     -0.4105
    562  O69      -25.7740   30.9570   32.3600 O.3   201  LVZ201     -0.0432
    563  O69      -25.4900   30.8700   33.1640 O.2   201  LVZ201      0.0000
    564  O69      -25.5150   30.8500   33.1480 O.3   201  LVZ201     -0.0025
    565  O69      -24.8470   30.8540   33.2210 O.3   201  LVZ201     -0.2179
    566  O69      -25.1240   30.7170   33.2670 O.2   201  LVZ201      0.0000
    567  O69      -24.7180   30.6220   32.8990 O.3   201  LVZ201     -0.0359
    568  O69      -25.3880   30.8280   33.5070 O.3   201  LVZ201     -0.2501
    569  O69      -25.3260   30.4930   33.2080 O.3   201  LVZ201     -0.0001
    570  O69      -25.8730   30.6410   32.8180 O.3   201  LVZ201     -0.2184
    571  O69      -25.4920   31.2960   33.0030 O.3   201  LVZ201     -0.2501
    572  O69      -25.3930   31.0880   32.9650 O.3   201  LVZ201     -0.2179
    573  O69      -25.8770   31.1250   33.4270 O.3   201  LVZ201     -0.2377
    574  O69      -25.5570   31.1810   33.4380 O.3   201  LVZ201     -0.2374
    575  O69      -25.0220   30.3470   32.9250 O.3   201  LVZ201     -0.0025
    576  O69      -25.1520   30.9810   33.2860 O.3   201  LVZ201     -0.0359
    577  O69      -24.2900   31.1070   34.2330 O.3   201  LVZ201     -0.2528
    578  O69      -24.6580   31.5330   34.3480 O.3   201  LVZ201     -0.2528
    579  O69      -24.8100   31.6220   34.2090 O.3   201  LVZ201     -0.4105
    580  C29      -28.5780   29.8580   37.5040 C.3   201  LVZ201      0.1081
    581  C29      -28.2790   29.5600   37.0210 C.3   201  LVZ201     -0.0776
    582  C29      -28.1870   30.0350   36.8550 C.3   201  LVZ201     -0.0776
    583  C29      -28.1280   29.6490   37.2560 C.3   201  LVZ201     -0.0261
    584  C29      -28.2660   29.7610   37.4510 C.3   201  LVZ201     -0.0655
    585  C29      -28.2020   29.6940   37.0380 C.3   201  LVZ201     -0.0588
    586  C29      -28.3210   29.9810   37.0750 C.3   201  LVZ201     -0.0500
    587  C29      -27.7140   29.7060   37.1050 C.3   201  LVZ201     -0.0438
    588  C29      -28.2860   29.6840   37.7270 C.3   201  LVZ201     -0.0655
    589  C29      -28.2950   29.6420   37.5160 C.3   201  LVZ201     -0.0776
    590  C29      -28.2770   29.7170   37.3020 C.3   201  LVZ201     -0.0776
    591  C29      -28.5270   29.9080   36.9580 C.1   201  LVZ201     -0.1225
    592  C29      -27.9790   29.9830   37.5210 C.3   201  LVZ201     -0.0438
    593  C29      -28.6140   29.9960   37.3610 C.3   201  LVZ201     -0.0648
    594  C29      -28.3020   30.0040   37.6560 C.3   201  LVZ201     -0.0655
    595  C29      -27.7810   29.1410   36.8880 C.3   201  LVZ201     -0.0650
    596  C29      -28.1730   29.5870   37.2870 C.1   201  LVZ201     -0.1225
    597  C29      -27.8310   29.6740   37.2050 C.3   201  LVZ201     -0.0655
    598  C29      -28.0850   29.7890   37.3920 C.3   201  LVZ201     -0.0588
    599  C29      -27.7420   29.6370   37.5300 C.3   201  LVZ201     -0.0344
    600  O6S      -24.1210   29.7020   32.7980 O.3   201  LVZ201     -0.0755
    601  O6S      -23.0000   30.1830   32.3470 O.3   201  LVZ201     -0.0185
    602  O6S      -23.9030   30.3730   31.1230 O.3   201  LVZ201      0.0000
    603  O6S      -23.8010   29.5190   32.3870 O.3   201  LVZ201     -0.0164
    604  O6S      -23.6110   29.7640   32.2020 O.3   201  LVZ201      0.0000
    605  O6S      -22.6770   30.0660   32.7230 O.3   201  LVZ201     -0.0013
    606  O6S      -23.1610   29.4320   32.5480 O.3   201  LVZ201      0.0000
    607  O6S      -22.5070   29.5810   32.4710 O.3   201  LVZ201     -0.0000
    608  O6S      -23.4480   29.4540   32.8910 O.3   201  LVZ201      0.0000
    609  O6S      -23.5650   29.3620   31.8250 O.2   201  LVZ201      0.0000
    610  O6S      -25.2640   28.8100   31.4860 O.2   201  LVZ201     -0.1317
    611  O6S      -23.6290   29.9300   32.4650 O.3   201  LVZ201     -0.0013
    612  O6S      -23.6740   29.8050   31.9290 O.2   201  LVZ201      0.0000
    613  O6S      -23.9490   30.7290   32.1570 O.2   201  LVZ201     -0.2278
    614  O6S      -23.3450   30.3730   32.5860 O.3   201  LVZ201     -0.0971
    615  O6S      -23.0510   29.5560   31.9870 O.3   201  LVZ201      0.0000
    616  O6S      -22.9670   30.1090   32.8530 O.3   201  LVZ201     -0.0198
    617  O6S      -24.3830   29.8860   32.2890 O.3   201  LVZ201      0.0000
    618  O6S      -25.1950   30.6450   32.2640 O.3   201  LVZ201     -0.0309
    619  O6S      -23.8530   31.1170   32.1600 O.2   201  LVZ201      0.0000
    620  H4       -32.4120   35.6870   35.3230 H     202  IDS202      0.0652
    621  H4       -32.1610   35.5390   34.7080 H     202  IDS202      0.0000
    622  H4       -32.0420   35.9500   34.6460 H     202  IDS202      0.0000
    623  H4       -32.5160   35.6550   34.4290 H     202  IDS202      0.0000
    624  H4       -31.9190   35.6440   34.7450 H     202  IDS202      0.0230
    625  H4       -31.4990   35.9010   34.3540 H     202  IDS202      0.0000
    626  H4       -31.4210   36.1010   34.3390 H     202  IDS202      0.0000
    627  H4       -31.3050   35.6800   34.4110 H     202  IDS202      0.0230
    628  H4       -31.7880   35.8960   35.2650 H     202  IDS202      0.0000
    629  H4       -31.2530   35.6460   34.2970 H     202  IDS202      0.0000
    630  H4       -31.3820   36.0040   34.3170 H     202  IDS202      0.0000
    631  H4       -31.8820   36.0670   34.7520 H     202  IDS202      0.0230
    632  H4       -31.5980   35.9140   35.0210 H     202  IDS202      0.0000
    633  H4       -32.1510   36.2050   34.6560 H     202  IDS202      0.0000
    634  H4       -32.2720   36.1690   35.6410 H     202  IDS202      0.0000
    635  H4       -31.3520   35.0510   34.6100 H     202  IDS202      0.0000
    636  H4       -31.8100   35.7790   35.1030 H     202  IDS202      0.0000
    637  H4       -31.9010   35.0660   35.0910 H     202  IDS202      0.0000
    638  H4       -32.1590   35.5900   35.9080 H     202  IDS202      0.0000
    639  H4       -31.6320   35.5140   35.8430 H     202  IDS202      0.0329
    640  O6       -36.1580   36.1160   36.4660 O.3   203  SGN203     -0.2626
    641  O6       -35.6090   36.0890   37.1050 O.3   203  SGN203      0.0000
    642  O6       -35.4970   36.8680   35.9070 O.3   203  SGN203     -0.3672
    643  O6       -36.3250   36.9580   36.7140 O.2   203  SGN203     -0.2312
    644  O6       -35.4910   36.4470   36.9190 O.3   203  SGN203      0.0000
    645  O6       -35.3800   36.3490   37.1340 O.2   203  SGN203     -0.1916
    646  O6       -35.3690   36.1290   36.6540 O.3   203  SGN203      0.0000
    647  O6       -34.7620   36.3640   36.0480 O.3   203  SGN203     -0.3672
    648  O6       -35.2410   37.0330   37.2650 O.3   203  SGN203     -0.2027
    649  O6       -35.4840   37.5520   37.3770 O.3   203  SGN203     -0.0381
    650  O6       -35.5530   37.1760   37.4970 O.3   203  SGN203     -0.0356
    651  O6       -35.7860   37.1380   36.2990 O.3   203  SGN203     -0.2203
    652  O6       -35.5880   37.1310   35.9080 O.3   203  SGN203     -0.0717
    653  O6       -36.0220   37.4410   35.8200 O.3   203  SGN203     -0.2203
    654  O6       -35.7540   37.6210   37.6870 O.3   203  SGN203     -0.2179
    655  O6       -35.5680   35.6700   36.3750 O.3   203  SGN203     -0.1059
    656  O6       -35.5060   36.1720   36.3430 O.3   203  SGN203     -0.2338
    657  O6       -35.6860   35.9020   36.2800 O.3   203  SGN203     -0.4105
    658  O6       -35.0830   36.2730   38.2490 O.3   203  SGN203     -0.0013
    659  O6       -34.9130   36.4510   38.5880 O.3   203  SGN203     -0.0000
    660  S19      -28.9530   28.1620   39.4000 S.3   201  LVZ201      0.0767
    661  S19      -28.5910   27.7810   38.9270 S.3   201  LVZ201      0.0000
    662  S19      -28.4520   28.4190   39.0480 S.3   201  LVZ201      0.0000
    663  S19      -28.2640   28.1950   39.3550 S.3   201  LVZ201      0.0000
    664  S19      -28.5340   28.1020   39.3230 S.3   201  LVZ201      0.0186
    665  S19      -28.8420   27.9000   38.8570 S.3   201  LVZ201      0.0000
    666  S19      -28.6720   28.0730   38.8540 S.3   201  LVZ201      0.0000
    667  S19      -28.1040   28.3050   39.2940 S.3   201  LVZ201      0.0014
    668  S19      -28.7860   28.1200   39.6920 S.3   201  LVZ201      0.0013
    669  S19      -29.1840   28.1440   39.4740 S.3   201  LVZ201      0.0000
    670  S19      -28.6970   27.8960   39.1980 S.3   201  LVZ201      0.0000
    671  S19      -28.9650   28.3970   39.0180 S.2   201  LVZ201      0.0000
    672  S19      -28.4880   28.3630   39.3780 S.3   201  LVZ201      0.0014
    673  S19      -29.0440   28.3300   39.3250 S.3   201  LVZ201      0.0013
    674  S19      -28.5440   28.3420   39.5540 S.3   201  LVZ201      0.0000
    675  S19      -28.1990   27.5670   38.9500 S.3   201  LVZ201      0.0000
    676  S19      -28.4670   27.8670   39.1340 S.3   201  LVZ201      0.0000
    677  S19      -28.2790   27.6900   38.8900 S.3   201  LVZ201      0.1152
    678  S19      -28.6940   27.9230   39.1680 S.3   201  LVZ201      0.0186
    679  S19      -28.2440   27.8200   39.3730 S.3   201  LVZ201      0.1152
    680  C5       -34.5400   38.0030   36.5950 C.3   203  SGN203      0.1145
    681  C5       -33.7330   37.7480   37.2010 C.3   203  SGN203     -0.0776
    682  C5       -33.6810   38.3300   36.4450 C.3   203  SGN203     -0.0650
    683  C5       -34.2290   38.0820   36.4900 C.1   203  SGN203     -0.1225
    684  C5       -33.4610   38.0320   36.9190 C.3   203  SGN203     -0.0418
    685  C5       -33.5940   37.8560   36.9090 C.3   203  SGN203     -0.0533
    686  C5       -33.6540   37.9900   36.5530 C.3   203  SGN203      0.0414
    687  C5       -32.9550   37.8510   36.1620 C.3   203  SGN203     -0.0624
    688  C5       -33.2470   38.3070   36.6080 C.3   203  SGN203     -0.0063
    689  C5       -33.2150   38.0260   36.5030 C.3   203  SGN203     -0.0444
    690  C5       -33.6230   37.8420   36.2740 C.3   203  SGN203     -0.0533
    691  C5       -33.7210   38.4290   36.7960 C.3   203  SGN203     -0.0650
    692  C5       -33.6460   38.5020   36.5390 C.2   203  SGN203      0.1273
    693  C5       -34.0210   38.6860   36.4900 C.3   203  SGN203     -0.0063
    694  C5       -33.7960   39.0180   37.5540 C.3   203  SGN203     -0.0776
    695  C5       -33.5540   36.9620   36.5480 C.3   203  SGN203     -0.0776
    696  C5       -33.8150   37.7170   37.1340 C.3   203  SGN203     -0.0776
    697  C5       -33.9600   37.4660   36.9800 C.3   203  SGN203     -0.0776
    698  C5       -33.5290   38.1370   38.1410 C.2   203  SGN203      0.1071
    699  C5       -33.3180   38.1220   38.0790 C.2   203  SGN203     -0.1058
    700  O59      -26.7490   30.3170   36.0460 O.3   201  LVZ201     -0.3414
    701  O59      -26.2350   29.8920   35.6050 O.2   201  LVZ201      0.0000
    702  O59      -26.5610   30.0870   35.0320 O.3   201  LVZ201     -0.4105
    703  O59      -26.4810   29.8880   35.5020 O.3   201  LVZ201     -0.0359
    704  O59      -26.3840   29.9940   35.8050 O.3   201  LVZ201     -0.4105
    705  O59      -26.2660   29.8840   35.5290 O.3   201  LVZ201     -0.4105
    706  O59      -26.3830   30.1090   35.6470 O.3   201  LVZ201     -0.2504
    707  O59      -25.9240   29.6830   35.4630 O.2   201  LVZ201      0.0000
    708  O59      -26.4700   29.7260   36.0360 O.3   201  LVZ201     -0.2179
    709  O59      -26.2670   29.4800   36.2040 O.3   201  LVZ201     -0.4105
    710  O59      -26.6480   29.5140   35.4290 O.3   201  LVZ201     -0.2203
    711  O59      -26.6670   30.1230   35.3420 O.3   201  LVZ201     -0.2407
    712  O59      -26.2240   30.1000   35.7500 O.3   201  LVZ201     -0.2179
    713  O59      -26.9540   30.0390   35.6360 O.3   201  LVZ201     -0.2203
    714  O59      -26.7470   30.0460   35.7590 O.3   201  LVZ201     -0.0049
    715  O59      -26.0880   29.4760   35.1830 O.3   201  LVZ201     -0.2203
    716  O59      -26.3710   29.8680   35.6890 O.3   201  LVZ201     -0.0717
    717  O59      -25.9450   29.9640   35.7330 O.3   201  LVZ201     -0.2203
    718  O59      -26.3290   30.0350   35.7890 O.3   201  LVZ201     -0.0359
    719  O59      -26.2690   29.6030   35.5560 O.3   201  LVZ201     -0.0717
    720  H39      -30.0370   30.7540   36.0730 H     201  LVZ201      0.0638
    721  H39      -29.3630   30.0770   35.2190 H     201  LVZ201      0.0000
    722  H39      -29.9040   30.6500   35.6540 H     201  LVZ201      0.0000
    723  H39      -29.7980   30.1790   36.0490 H     201  LVZ201      0.0000
    724  H39      -29.5870   30.1640   35.7920 H     201  LVZ201      0.0000
    725  H39      -29.5780   30.5050   35.5570 H     201  LVZ201      0.0000
    726  H39      -29.5890   30.9830   35.5720 H     201  LVZ201      0.0000
    727  H39      -29.2530   29.9350   35.6900 H     201  LVZ201      0.0000
    728  H39      -29.6570   30.3410   36.2250 H     201  LVZ201      0.0000
    729  H39      -29.3510   30.3370   35.8400 H     201  LVZ201      0.0000
    730  H39      -29.7000   30.9340   36.2270 H     201  LVZ201      0.0265
    731  H39      -29.9540   30.5930   35.4440 H     201  LVZ201      0.0000
    732  H39      -29.4030   30.6560   36.0930 H     201  LVZ201      0.0304
    733  H39      -30.1410   30.6570   35.8670 H     201  LVZ201      0.0000
    734  H39      -29.9000   30.8730   36.5790 H     201  LVZ201      0.0265
    735  H39      -29.3340   29.8200   35.4700 H     201  LVZ201      0.0000
    736  H39      -29.7100   30.3180   36.0720 H     201  LVZ201      0.0000
    737  H39      -29.2010   30.4050   35.8370 H     201  LVZ201      0.0194
    738  H39      -29.5630   30.8900   36.3770 H     201  LVZ201      0.0000
    739  H39      -29.3500   30.8680   36.5140 H     201  LVZ201      0.0268
    740  O5S      -38.1410   35.9200   37.7030 O.3   203  SGN203     -0.0707
    741  O5S      -37.3570   35.9360   38.7880 O.2   203  SGN203      0.0000
    742  O5S      -37.7370   37.0650   36.7060 O.3   203  SGN203      0.0000
    743  O5S      -37.5770   37.8590   38.6660 O.3   203  SGN203     -0.0000
    744  O5S      -37.3950   36.4050   38.5130 O.2   203  SGN203      0.0000
    745  O5S      -36.9290   36.9020   38.9670 O.3   203  SGN203     -0.0853
    746  O5S      -37.2920   36.2080   38.0170 O.3   203  SGN203      0.0000
    747  O5S      -37.1540   36.2770   36.3910 O.3   203  SGN203     -0.1149
    748  O5S      -37.5080   37.7780   37.0360 O.3   203  SGN203     -0.1171
    749  O5S      -37.8920   38.0600   37.3490 O.3   203  SGN203     -0.0199
    750  O5S      -37.3940   38.5720   38.0570 O.3   203  SGN203     -0.0014
    751  O5S      -37.9950   37.8320   35.9800 O.3   203  SGN203      0.0000
    752  O5S      -37.9240   37.7960   36.2320 O.2   203  SGN203      0.0000
    753  O5S      -38.2050   36.6800   36.7770 O.3   203  SGN203     -0.0212
    754  O5S      -37.4630   37.8390   35.9910 O.2   203  SGN203      0.0000
    755  O5S      -37.8560   36.2980   36.0870 O.3   203  SGN203      0.0000
    756  O5S      -37.4610   36.7410   34.9930 O.3   203  SGN203      0.0000
    757  O5S      -37.7690   36.4550   35.4110 O.3   203  SGN203      0.0000
    758  O5S      -36.3450   34.3030   37.9570 O.3   203  SGN203      0.0000
    759  O5S      -37.3910   36.4540   38.6060 O.3   203  SGN203     -0.0853
    760  H29      -28.0920   30.3100   38.3690 H     201  LVZ201      0.0554
    761  H29      -27.7270   30.1290   37.7690 H     201  LVZ201      0.0260
    762  H29      -27.5050   30.5680   37.5190 H     201  LVZ201      0.0000
    763  H29      -27.4680   30.2760   37.8550 H     201  LVZ201      0.0000
    764  H29      -27.7160   30.3820   38.1590 H     201  LVZ201      0.0000
    765  H29      -27.7180   30.2220   37.8590 H     201  LVZ201      0.0000
    766  H29      -27.6530   30.4100   37.8220 H     201  LVZ201      0.0000
    767  H29      -27.1300   30.2810   37.8240 H     201  LVZ201      0.0000
    768  H29      -27.7120   30.3760   38.3440 H     201  LVZ201      0.0000
    769  H29      -27.8200   30.1660   38.3450 H     201  LVZ201      0.0000
    770  H29      -27.4110   29.9360   37.9260 H     201  LVZ201      0.0000
    771  H29      -27.9560   30.4080   37.7390 H     201  LVZ201      0.0000
    772  H29      -27.2630   30.3950   38.2320 H     201  LVZ201      0.0000
    773  H29      -27.9150   30.4070   38.0890 H     201  LVZ201      0.0000
    774  H29      -27.5330   30.4740   38.2700 H     201  LVZ201      0.0000
    775  H29      -27.1190   29.5670   37.6420 H     201  LVZ201      0.0000
    776  H29      -27.5170   29.9380   38.0840 H     201  LVZ201      0.0000
    777  H29      -27.2560   30.1840   37.9780 H     201  LVZ201      0.0000
    778  H29      -27.3340   29.9400   38.1680 H     201  LVZ201      0.0000
    779  H29      -26.9140   29.9120   38.1830 H     201  LVZ201      0.0000
    780  C3       -32.9600   39.7770   37.2610 C.3   203  SGN203      0.1045
    781  C3       -31.8330   39.3040   37.6160 C.3   203  SGN203     -0.0776
    782  C3       -31.6290   39.7760   37.0590 C.3   203  SGN203     -0.0528
    783  C3       -32.0960   39.4750   37.0560 C.3   203  SGN203     -0.0624
    784  C3       -31.6690   39.7360   37.0700 C.3   203  SGN203     -0.0653
    785  C3       -31.8510   39.5590   37.3500 C.3   203  SGN203     -0.0390
    786  C3       -32.0790   39.8870   37.2200 C.3   203  SGN203     -0.0502
    787  C3       -31.1370   39.5240   36.9540 C.3   203  SGN203     -0.0624
    788  C3       -31.2910   39.8760   37.2630 C.3   203  SGN203     -0.0650
    789  C3       -31.3310   39.6710   37.0670 C.3   203  SGN203     -0.0776
    790  C3       -32.0340   39.6170   36.8970 C.3   203  SGN203     -0.0557
    791  C3       -31.8000   40.0720   37.2100 C.3   203  SGN203     -0.0776
    792  C3       -31.7960   40.0660   37.2020 C.3   203  SGN203     -0.0776
    793  C3       -32.0470   40.0880   37.1540 C.3   203  SGN203     -0.0776
    794  C3       -31.7180   40.5080   37.7040 C.3   203  SGN203      0.0330
    795  C3       -31.8380   38.6170   37.6960 C.3   203  SGN203     -0.0776
    796  C3       -32.2360   39.6350   37.7570 C.3   203  SGN203     -0.0624
    797  C3       -32.1130   39.2200   37.5270 C.3   203  SGN203     -0.0439
    798  C3       -31.8000   40.0170   37.9590 C.3   203  SGN203      0.1788
    799  C3       -31.5180   40.0800   37.9130 C.3   203  SGN203     -0.0776
    800  C1       -27.3920   27.2920   35.0650 C.3   201  LVZ201      0.0561
    801  C1       -26.6010   26.9800   34.6710 C.3   201  LVZ201     -0.0653
    802  C1       -27.3840   27.0950   34.7440 C.3   201  LVZ201     -0.0776
    803  C1       -27.2710   27.0320   34.7330 C.3   201  LVZ201     -0.0653
    804  C1       -27.3150   26.8500   35.3450 C.3   201  LVZ201     -0.0776
    805  C1       -27.1580   26.8210   34.6870 C.3   201  LVZ201     -0.0390
    806  C1       -27.3320   27.2510   34.5890 C.3   201  LVZ201     -0.0653
    807  C1       -26.9810   26.6190   35.0920 C.3   201  LVZ201     -0.0681
    808  C1       -27.6280   27.1900   34.9360 C.3   201  LVZ201     -0.0562
    809  C1       -27.3450   26.7960   35.3460 C.3   201  LVZ201     -0.0681
    810  C1       -28.4720   27.3850   34.1220 C.3   201  LVZ201     -0.0655
    811  C1       -27.5880   27.0860   34.6060 C.3   201  LVZ201     -0.0300
    812  C1       -27.3300   27.1790   34.9140 C.3   201  LVZ201      0.0522
    813  C1       -27.9150   27.2060   34.9540 C.3   201  LVZ201     -0.0629
    814  C1       -28.4300   27.5330   34.9450 C.2   201  LVZ201     -0.1058
    815  C1       -26.6000   26.9650   33.9010 C.3   201  LVZ201     -0.0536
    816  C1       -27.3130   26.9810   34.6710 C.3   201  LVZ201     -0.0776
    817  C1       -26.6630   27.6420   34.1230 C.3   201  LVZ201     -0.0653
    818  C1       -27.8230   27.3690   34.6190 C.3   201  LVZ201     -0.0562
    819  C1       -28.0890   27.0140   34.9650 C.2   201  LVZ201     -0.1058
    820  O3S      -29.6170   33.8770   31.2030 O.3   202  IDS202     -0.0543
    821  O3S      -28.0120   32.8330   31.4760 O.3   202  IDS202      0.0000
    822  O3S      -28.9650   33.0560   30.4870 O.3   202  IDS202      0.0000
    823  O3S      -28.8570   33.1580   31.2960 O.3   202  IDS202      0.0000
    824  O3S      -28.7200   32.8490   31.3970 O.2   202  IDS202      0.0000
    825  O3S      -25.8310   34.8890   31.2630 O.3   202  IDS202      0.0000
    826  O3S      -26.0730   34.1860   31.6280 O.3   202  IDS202      0.0000
    827  O3S      -27.6850   32.4960   31.0010 O.3   202  IDS202      0.0000
    828  O3S      -28.0630   32.5200   32.0380 O.3   202  IDS202      0.0000
    829  O3S      -25.4660   34.7290   31.1640 O.3   202  IDS202      0.0000
    830  O3S      -25.0820   34.4560   32.9090 O.2   202  IDS202     -0.1067
    831  O3S      -29.5560   33.9540   30.8770 O.3   202  IDS202     -0.0198
    832  O3S      -27.8250   33.7780   31.5660 O.2   202  IDS202     -0.3428
    833  O3S      -28.6690   33.5630   31.4980 O.3   202  IDS202      0.0000
    834  O3S      -28.8520   32.9350   32.2790 O.3   202  IDS202      0.0000
    835  O3S      -28.4610   35.7570   30.7890 O.3   202  IDS202      0.0000
    836  O3S      -28.8820   33.8000   31.3450 O.3   202  IDS202     -0.1158
    837  O3S      -27.0440   33.5870   31.2190 O.3   202  IDS202     -0.2661
    838  O3S      -28.4980   33.3620   31.8080 O.3   202  IDS202      0.0000
    839  O3S      -28.5770   33.1830   31.8060 O.2   202  IDS202      0.0000
    840  O4S      -36.5310   34.1530   37.6970 O.3   203  SGN203     -0.0707
    841  O4S      -36.3100   33.9810   38.0320 O.3   203  SGN203      0.0000
    842  O4S      -36.8890   34.9270   35.9600 O.3   203  SGN203     -0.1028
    843  O4S      -37.5570   35.5140   38.3190 O.3   203  SGN203     -0.0000
    844  O4S      -36.3300   34.3610   37.9170 O.2   203  SGN203      0.0000
    845  O4S      -36.6680   34.6450   38.1490 O.2   203  SGN203      0.0000
    846  O4S      -36.1640   34.1200   37.9280 O.3   203  SGN203     -0.0163
    847  O4S      -35.7000   34.4350   37.1400 O.3   203  SGN203     -0.0013
    848  O4S      -36.7470   35.5880   36.2380 O.3   203  SGN203     -0.2046
    849  O4S      -37.0060   36.1830   35.9840 O.3   203  SGN203     -0.0212
    850  O4S      -37.7160   36.8420   36.5200 O.3   203  SGN203     -0.1158
    851  O4S      -37.5190   35.5090   36.0780 O.2   203  SGN203      0.0000
    852  O4S      -37.4180   35.6020   35.5360 O.2   203  SGN203      0.0000
    853  O4S      -36.4830   35.0330   36.1970 O.3   203  SGN203     -0.0200
    854  O4S      -37.1240   35.7900   37.2040 O.3   203  SGN203     -0.0013
    855  O4S      -37.2710   34.1610   37.0110 O.3   203  SGN203      0.0000
    856  O4S      -36.8710   34.4730   35.4240 O.3   203  SGN203      0.0000
    857  O4S      -37.2330   34.1150   35.5770 O.3   203  SGN203      0.0000
    858  O4S      -36.3720   36.0300   36.3080 O.3   203  SGN203     -0.1331
    859  O4S      -36.3020   35.6870   36.7170 O.3   203  SGN203     -0.0899
    860  C1       -28.9510   34.3580   35.1730 C.3   202  IDS202      0.1911
    861  C1       -28.6560   33.8690   34.5460 C.3   202  IDS202     -0.0346
    862  C1       -28.8250   34.1430   34.3450 C.3   202  IDS202     -0.0776
    863  C1       -29.1380   33.8340   34.9120 C.3   202  IDS202     -0.0415
    864  C1       -28.5260   33.9680   34.8550 C.3   202  IDS202     -0.0655
    865  C1       -28.3020   34.1630   34.9700 C.3   202  IDS202     -0.0555
    866  C1       -28.1440   34.4200   34.9350 C.3   202  IDS202     -0.0655
    867  C1       -28.0460   33.6690   34.4470 C.3   202  IDS202     -0.0776
    868  C1       -28.5200   33.9590   35.1900 C.1   202  IDS202     -0.1225
    869  C1       -28.0000   33.8480   35.0630 C.2   202  IDS202     -0.1026
    870  C1       -28.2080   34.0770   35.5080 C.2   202  IDS202      0.1071
    871  C1       -28.6820   34.2960   34.7740 C.3   202  IDS202     -0.0653
    872  C1       -28.2370   34.3230   35.3830 C.3   202  IDS202     -0.0451
    873  C1       -29.0540   34.3830   35.2010 C.3   202  IDS202      0.0210
    874  C1       -28.9850   34.2860   35.6630 C.3   202  IDS202      0.1709
    875  C1       -28.1510   33.4400   34.6530 C.3   202  IDS202     -0.0776
    876  C1       -28.3610   34.1090   35.2050 C.3   202  IDS202     -0.0588
    877  C1       -28.3660   33.9860   34.8870 C.2   202  IDS202     -0.0911
    878  C1       -28.6840   34.1980   35.3230 C.3   202  IDS202      0.0208
    879  C1       -28.2290   34.1250   35.4180 C.1   202  IDS202     -0.1225
    880  O2       -28.5980   35.2610   32.9410 O.3   202  IDS202     -0.2309
    881  O2       -28.4940   35.0040   32.3460 O.3   202  IDS202     -0.4105
    882  O2       -28.7230   34.8470   32.0680 O.2   202  IDS202     -0.2289
    883  O2       -28.4380   34.9460   32.8360 O.3   202  IDS202     -0.2201
    884  O2       -28.2090   34.9370   32.5490 O.3   202  IDS202     -0.4105
    885  O2       -27.4310   35.3630   33.0790 O.3   202  IDS202     -0.2203
    886  O2       -27.4220   35.6600   32.9210 O.2   202  IDS202      0.0000
    887  O2       -27.5260   34.5270   32.3560 O.3   202  IDS202     -0.4105
    888  O2       -28.1420   34.8010   32.9820 O.3   202  IDS202      0.0000
    889  O2       -26.9730   34.7480   33.0150 O.3   202  IDS202     -0.0717
    890  O2       -26.9570   35.5280   34.0050 O.3   202  IDS202     -0.4105
    891  O2       -28.2270   35.2400   32.5220 O.3   202  IDS202     -0.4105
    892  O2       -27.4330   35.4280   33.3560 O.2   202  IDS202      0.0000
    893  O2       -28.2370   35.2090   33.1470 O.3   202  IDS202      0.0000
    894  O2       -28.7590   35.0970   33.3780 O.2   202  IDS202     -0.3007
    895  O2       -27.5360   34.6580   32.6780 O.3   202  IDS202     -0.2203
    896  O2       -27.8560   35.0700   33.1080 O.3   202  IDS202      0.0000
    897  O2       -28.3630   35.0820   32.6710 O.3   202  IDS202     -0.4105
    898  O2       -28.7400   35.3210   33.1570 O.3   202  IDS202     -0.2084
    899  O2       -28.2870   35.0880   33.2080 O.3   202  IDS202     -0.0693
    900  HN9      -29.4790   28.0900   37.3260 H     201  LVZ201      0.1487
    901  HN9      -29.5660   27.8990   36.9600 H     201  LVZ201      0.0000
    902  HN9      -29.7200   28.5540   37.2580 H     201  LVZ201      0.0000
    903  HN9      -29.3730   28.0190   37.6080 H     201  LVZ201      0.0000
    904  HN9      -29.5900   28.1370   37.6410 H     201  LVZ201      0.0000
    905  HN9      -29.6280   28.1910   36.9140 H     201  LVZ201      0.0000
    906  HN9      -29.8450   28.7610   37.0600 H     201  LVZ201      0.0000
    907  HN9      -29.1170   28.1640   37.4220 H     201  LVZ201      0.1146
    908  HN9      -29.5380   28.2160   37.7390 H     201  LVZ201      0.2112
    909  HN9      -29.7730   28.1570   37.3730 H     201  LVZ201      0.0000
    910  HN9      -30.0470   28.4440   37.6860 H     201  LVZ201      0.0000
    911  HN9      -29.8040   28.2010   37.1660 H     201  LVZ201      0.0000
    912  HN9      -29.1930   28.4870   37.4180 H     201  LVZ201      0.1981
    913  HN9      -29.8340   28.3600   37.5220 H     201  LVZ201      0.0000
    914  HN9      -29.6910   28.5680   37.8370 H     201  LVZ201      0.2774
    915  HN9      -29.0730   27.4740   37.1430 H     201  LVZ201      0.0000
    916  HN9      -29.2070   27.9120   37.1740 H     201  LVZ201      0.0000
    917  HN9      -29.4490   28.2390   37.1810 H     201  LVZ201      0.0000
    918  HN9      -29.6860   28.3960   37.3830 H     201  LVZ201      0.0000
    919  HN9      -29.2170   28.3570   37.6750 H     201  LVZ201      0.0000
    920  O49      -29.2960   32.8810   35.2870 O.3   201  LVZ201     -0.3401
    921  O49      -28.7870   32.3970   34.5010 O.3   201  LVZ201     -0.0383
    922  O49      -29.1100   32.6980   34.3460 O.3   201  LVZ201     -0.2179
    923  O49      -29.1800   32.4060   34.7400 O.3   201  LVZ201     -0.0383
    924  O49      -28.8000   32.5190   34.7490 O.3   201  LVZ201     -0.2179
    925  O49      -28.4050   32.6390   34.5960 O.3   201  LVZ201     -0.0383
    926  O49      -28.3730   33.0040   34.6510 O.2   201  LVZ201      0.0000
    927  O49      -28.4250   32.2450   34.4340 O.3   201  LVZ201     -0.2179
    928  O49      -28.8340   32.4730   35.2610 O.3   201  LVZ201     -0.2179
    929  O49      -28.2890   32.3710   34.9370 O.3   201  LVZ201     -0.0383
    930  O49      -28.4410   32.6710   35.1680 O.3   201  LVZ201     -0.2179
    931  O49      -29.0350   32.8930   34.6270 O.3   201  LVZ201     -0.0717
    932  O49      -28.5250   32.8870   35.0390 O.2   201  LVZ201      0.0000
    933  O49      -29.2800   32.9630   35.0850 O.3   201  LVZ201     -0.2203
    934  O49      -29.1660   32.8420   35.4070 O.2   201  LVZ201      0.0000
    935  O49      -28.5680   32.0490   34.5690 O.3   201  LVZ201     -0.2179
    936  O49      -28.8240   32.6440   35.0740 O.3   201  LVZ201     -0.2203
    937  O49      -28.3920   32.5590   34.8150 O.3   201  LVZ201     -0.0383
    938  O49      -28.7690   32.7350   35.3710 O.2   201  LVZ201      0.0000
    939  O49      -28.4770   32.6970   35.1870 O.3   201  LVZ201     -0.0383
    940  C4       -31.4430   36.1440   35.5230 C.3   202  IDS202      0.1213
    941  C4       -31.1120   35.6350   34.9850 C.3   202  IDS202     -0.0554
    942  C4       -31.0040   36.1020   34.9400 C.3   202  IDS202     -0.0562
    943  C4       -31.5180   35.7450   34.8580 C.3   202  IDS202     -0.0653
    944  C4       -30.9310   35.8250   35.1680 C.3   202  IDS202     -0.0450
    945  C4       -30.6240   36.0530   34.9860 C.3   202  IDS202     -0.0292
    946  C4       -30.5720   36.2270   35.0120 C.3   202  IDS202     -0.0562
    947  C4       -30.2540   35.7320   34.6940 C.3   202  IDS202     -0.0168
    948  C4       -30.7170   35.9480   35.4590 C.3   202  IDS202     -0.0492
    949  C4       -30.3310   35.8830   34.8270 C.1   202  IDS202     -0.1225
    950  C4       -30.5390   36.0590   35.0070 C.3   202  IDS202     -0.0172
    951  C4       -30.8720   36.2170   35.1330 C.3   202  IDS202     -0.0647
    952  C4       -30.6000   36.1690   35.3780 C.3   202  IDS202      0.0442
    953  C4       -31.2180   36.3090   35.2090 C.3   202  IDS202     -0.0653
    954  C4       -31.2660   36.3140   36.0320 C.3   202  IDS202      0.0891
    955  C4       -30.3950   35.2990   35.0690 C.3   202  IDS202     -0.0458
    956  C4       -30.8300   35.9510   35.5470 C.3   202  IDS202     -0.0238
    957  C4       -30.9360   35.5070   35.3440 C.3   202  IDS202     -0.0473
    958  C4       -31.1010   35.8320   35.9990 C.3   202  IDS202     -0.0083
    959  C4       -30.6470   35.8840   36.1280 C.3   202  IDS202     -0.0415
    960  S2       -36.7420   35.5940   37.7660 S.3   203  SGN203      0.3153
    961  S2       -36.1030   35.3750   38.3880 S.3   203  SGN203      0.0000
    962  S2       -36.6100   36.1430   36.6810 S.3   203  SGN203      0.1180
    963  S2       -36.7530   36.7030   38.2590 S.3   203  SGN203      0.3424
    964  S2       -36.1530   35.7630   38.2070 S.3   203  SGN203      0.0000
    965  S2       -36.0010   35.8730   38.4970 S.3   203  SGN203      0.0000
    966  S2       -36.0500   35.5550   37.9740 S.3   203  SGN203      0.0000
    967  S2       -35.8740   35.8640   36.9890 S.O   203  SGN203      0.3632
    968  S2       -36.7050   36.5820   37.2650 S.3   203  SGN203      0.0333
    969  S2       -36.9980   36.9300   37.2470 S.3   203  SGN203      0.0024
    970  S2       -37.1160   37.2040   37.7820 S.3   203  SGN203      0.0213
    971  S2       -37.2370   36.7920   36.6640 S.3   203  SGN203      0.1370
    972  S2       -37.0250   36.7090   36.4050 S.3   203  SGN203      0.1489
    973  S2       -36.7400   36.3690   36.7480 S.O   203  SGN203      0.1827
    974  S2       -37.1880   37.2050   37.2620 S.3   203  SGN203      0.1171
    975  S2       -36.9570   35.5510   37.0210 S.3   203  SGN203      0.0546
    976  S2       -36.9730   35.7930   35.9540 S.3   203  SGN203      0.1265
    977  S2       -37.1470   35.4230   36.1780 S.3   203  SGN203      0.1648
    978  S2       -36.4280   35.7240   37.7280 S.2   203  SGN203      0.2278
    979  S2       -36.2130   35.7400   38.1540 S.3   203  SGN203      0.0000
    980  N        -30.8080   40.1720   36.0700 N.3   203  SGN203     -0.2041
    981  N        -30.0830   39.6340   35.9680 N.3   203  SGN203     -0.2558
    982  N        -29.8000   40.0570   35.4960 N.2   203  SGN203     -0.0732
    983  N        -30.2610   39.4880   35.5510 N.3   203  SGN203     -0.1790
    984  N        -29.8280   39.7070   35.3470 N.3   203  SGN203     -0.1472
    985  N        -30.0400   40.0810   35.8350 N.pl3 203  SGN203     -0.1705
    986  N        -30.0100   40.1760   35.7900 N.3   203  SGN203     -0.3437
    987  N        -29.0820   39.9350   35.5100 N.pl3 203  SGN203     -0.1871
    988  N        -29.1980   39.9690   35.9600 N.3   203  SGN203     -0.2394
    989  N        -29.3900   39.9510   35.4520 N.2   203  SGN203     -0.1864
    990  N        -29.9770   40.0780   35.5480 N.3   203  SGN203     -0.0832
    991  N        -29.9350   40.1670   35.7330 N.3   203  SGN203     -0.3437
    992  N        -29.7190   40.2290   35.7290 N.2   203  SGN203     -0.0745
    993  N        -30.1290   40.3540   35.5920 N.2   203  SGN203     -0.1865
    994  N        -29.8550   40.2340   35.9710 N.3   203  SGN203     -0.2377
    995  N        -29.7890   39.2690   36.2870 N.3   203  SGN203     -0.3437
    996  N        -30.3440   40.1500   36.2400 N.3   203  SGN203     -0.2211
    997  N        -30.2560   39.4660   35.9450 N.3   203  SGN203     -0.2032
    998  N        -30.1620   39.8230   36.1880 N.3   203  SGN203     -0.1567
    999  N        -30.0060   39.8930   35.9940 N.3   203  SGN203     -0.1592
   1000  O2       -28.1640   28.3810   35.6170 O.3   201  LVZ201     -0.3469
   1001  O2       -27.5820   27.9640   35.1990 O.3   201  LVZ201     -0.4105
   1002  O2       -28.1690   28.2130   35.2370 O.3   201  LVZ201     -0.0359
   1003  O2       -28.0640   28.0210   35.4440 O.3   201  LVZ201     -0.0383
   1004  O2       -28.0080   28.1110   35.6170 O.3   201  LVZ201     -0.0025
   1005  O2       -27.8120   28.0310   35.2370 O.3   201  LVZ201     -0.2179
   1006  O2       -27.9840   28.4580   35.0890 O.3   201  LVZ201      0.0000
   1007  O2       -27.4980   27.8280   35.7240 O.3   201  LVZ201     -0.4105
   1008  O2       -28.3200   28.1660   35.8130 O.3   201  LVZ201     -0.0383
   1009  O2       -28.0430   27.9560   35.9000 O.3   201  LVZ201     -0.2179
   1010  O2       -28.8020   28.4920   35.0900 O.3   201  LVZ201      0.0000
   1011  O2       -28.2600   28.2190   35.2140 O.3   201  LVZ201     -0.0359
   1012  O2       -27.9400   28.2810   35.7160 O.3   201  LVZ201     -0.2179
   1013  O2       -28.5860   28.3350   35.6380 O.3   201  LVZ201      0.0000
   1014  O2       -28.8850   28.7590   35.5910 O.3   201  LVZ201      0.0000
   1015  O2       -27.4650   27.6200   34.8450 O.3   201  LVZ201     -0.3921
   1016  O2       -27.9680   28.1280   35.3320 O.3   201  LVZ201      0.0000
   1017  O2       -27.6240   28.1810   35.1080 O.3   201  LVZ201      0.0000
   1018  O2       -28.1250   28.6060   35.2540 O.3   201  LVZ201     -0.2179
   1019  O2       -28.3870   28.3000   35.6520 O.3   201  LVZ201     -0.0025
   1020  H1       -32.0880   38.4170   34.2770 H     203  SGN203      0.0927
   1021  H1       -31.9050   37.9550   34.3640 H     203  SGN203      0.0000
   1022  H1       -31.4610   38.4480   33.9450 H     203  SGN203      0.0000
   1023  H1       -31.9320   38.1420   33.8910 H     203  SGN203      0.0000
   1024  H1       -31.5820   38.0560   34.1310 H     203  SGN203      0.0000
   1025  H1       -31.6110   38.3130   34.1900 H     203  SGN203      0.0000
   1026  H1       -31.3770   38.6440   34.1690 H     203  SGN203      0.0000
   1027  H1       -30.5680   38.3960   33.7860 H     203  SGN203      0.0000
   1028  H1       -30.7670   38.3360   34.2730 H     203  SGN203      0.0194
   1029  H1       -30.9970   38.3400   33.8420 H     203  SGN203      0.0000
   1030  H1       -31.1540   38.3150   33.9820 H     203  SGN203      0.0000
   1031  H1       -31.4710   38.6680   34.2370 H     203  SGN203      0.0000
   1032  H1       -31.1010   38.3090   34.2560 H     203  SGN203      0.0000
   1033  H1       -31.6010   38.6870   34.0740 H     203  SGN203      0.0000
   1034  H1       -31.7030   38.7010   34.8890 H     203  SGN203      0.0227
   1035  H1       -31.2150   38.0060   34.3300 H     203  SGN203      0.0303
   1036  H1       -31.6670   38.2360   34.5910 H     203  SGN203      0.0194
   1037  H1       -31.7890   37.7390   34.4480 H     203  SGN203      0.0000
   1038  H1       -31.9230   37.9890   35.0980 H     203  SGN203      0.2563
   1039  H1       -31.7740   37.8890   35.1390 H     203  SGN203      0.0232
   1040  H5       -31.4480   34.3370   36.2690 H     202  IDS202      0.0677
   1041  H5       -31.1590   33.5310   35.2610 H     202  IDS202      0.0000
   1042  H5       -31.0480   34.0400   35.5420 H     202  IDS202      0.0000
   1043  H5       -31.6470   33.6050   35.2580 H     202  IDS202      0.0000
   1044  H5       -31.0580   33.8080   35.5350 H     202  IDS202      0.0000
   1045  H5       -30.8050   33.9630   35.2590 H     202  IDS202      0.0000
   1046  H5       -30.6220   34.1050   35.5020 H     202  IDS202      0.0000
   1047  H5       -30.4800   33.6730   35.3500 H     202  IDS202      0.0000
   1048  H5       -30.9180   33.8980   36.1750 H     202  IDS202      0.0000
   1049  H5       -30.5520   33.7400   35.2940 H     202  IDS202      0.0000
   1050  H5       -30.9020   34.0090   35.3620 H     202  IDS202      0.0000
   1051  H5       -31.1200   34.2110   35.4810 H     202  IDS202      0.0194
   1052  H5       -30.6840   34.0590   35.7590 H     202  IDS202      0.0230
   1053  H5       -31.4980   34.2090   35.7400 H     202  IDS202      0.0000
   1054  H5       -31.5130   34.2640   36.7020 H     202  IDS202      0.0297
   1055  H5       -30.3790   33.2150   35.7460 H     202  IDS202      0.0000
   1056  H5       -30.8290   33.9300   36.0080 H     202  IDS202      0.0000
   1057  H5       -30.5750   33.4400   35.8420 H     202  IDS202      0.0000
   1058  H5       -30.9950   33.7990   36.5570 H     202  IDS202      0.0000
   1059  H5       -30.5080   33.7350   36.6750 H     202  IDS202      0.0000
   1060  O3       -32.8260   41.1890   37.7050 O.3   203  SGN203     -0.3874
   1061  O3       -31.6260   40.7210   37.9760 O.2   203  SGN203      0.0000
   1062  O3       -31.2330   41.0440   37.6370 O.2   203  SGN203      0.0000
   1063  O3       -31.8170   40.8040   37.5520 O.3   203  SGN203     -0.4105
   1064  O3       -31.3380   41.0970   37.3300 O.3   203  SGN203     -0.2203
   1065  O3       -31.7780   40.9800   37.6730 O.2   203  SGN203      0.0000
   1066  O3       -32.2170   41.2870   37.4940 O.3   203  SGN203     -0.4105
   1067  O3       -31.0150   40.8260   37.5140 O.3   203  SGN203     -0.0717
   1068  O3       -30.9880   41.2580   37.6150 O.3   203  SGN203     -0.2203
   1069  O3       -31.1320   41.0380   37.4840 O.3   203  SGN203     -0.4105
   1070  O3       -31.7900   40.8880   37.5290 O.3   203  SGN203     -0.3982
   1071  O3       -31.5720   41.4560   37.5220 O.2   203  SGN203      0.0000
   1072  O3       -31.6440   41.4540   37.4770 O.3   203  SGN203     -0.2528
   1073  O3       -31.7280   41.4290   37.6430 O.3   203  SGN203     -0.2528
   1074  O3       -31.3880   41.8960   37.7620 O.3   203  SGN203     -0.4105
   1075  O3       -31.6990   39.8520   38.3630 O.3   203  SGN203     -0.3671
   1076  O3       -32.3600   40.9690   38.1430 O.3   203  SGN203     -0.2479
   1077  O3       -32.0580   40.5330   38.0980 O.3   203  SGN203     -0.2092
   1078  O3       -31.6710   41.4080   38.0610 O.3   203  SGN203     -0.2528
   1079  O3       -31.5710   41.5230   37.8840 O.3   203  SGN203     -0.2528
   1080  C2       -29.6450   34.9170   33.9440 C.3   202  IDS202      0.1658
   1081  C2       -29.4070   34.6230   33.4090 C.3   202  IDS202     -0.0650
   1082  C2       -29.6300   34.8090   33.2070 C.3   202  IDS202     -0.0776
   1083  C2       -29.6300   34.5470   33.6130 C.3   202  IDS202     -0.0653
   1084  C2       -29.1840   34.6400   33.6280 C.3   202  IDS202     -0.0556
   1085  C2       -28.6720   35.0460   33.7670 C.2   202  IDS202      0.1239
   1086  C2       -28.6570   35.2710   33.7310 C.3   202  IDS202      0.0747
   1087  C2       -28.6850   34.2800   33.2210 C.3   202  IDS202     -0.0776
   1088  C2       -29.2120   34.5080   33.9250 C.3   202  IDS202     -0.0247
   1089  C2       -28.3500   34.5820   33.6660 C.3   202  IDS202     -0.0776
   1090  C2       -28.2970   34.9940   34.2500 C.2   202  IDS202     -0.1024
   1091  C2       -29.2840   35.0740   33.5240 C.3   202  IDS202     -0.0499
   1092  C2       -28.6590   35.0510   34.0600 C.2   202  IDS202     -0.0877
   1093  C2       -29.4990   35.0080   33.9120 C.3   202  IDS202     -0.0350
   1094  C2       -29.6770   34.9820   34.4960 C.3   202  IDS202     -0.0431
   1095  C2       -28.7050   34.2250   33.4880 C.3   202  IDS202     -0.0776
   1096  C2       -28.9470   34.8550   34.0420 C.3   202  IDS202      0.0212
   1097  C2       -29.1730   34.5630   33.7610 C.3   202  IDS202     -0.0525
   1098  C2       -29.5700   34.7370   34.1910 C.3   202  IDS202     -0.0330
   1099  C2       -29.1380   34.7440   34.3760 C.3   202  IDS202     -0.0247
   1100  O62      -30.3800   35.6080   38.9510 O.3   202  IDS202     -0.1650
   1101  O62      -30.5190   34.5570   38.1000 O.3   202  IDS202     -0.0353
   1102  O62      -30.3290   34.8730   38.2700 O.3   202  IDS202     -0.0381
   1103  O62      -31.8720   34.2820   38.2020 O.3   202  IDS202     -0.0025
   1104  O62      -30.7170   34.6180   38.4760 O.3   202  IDS202     -0.2060
   1105  O62      -30.9170   34.4770   38.1890 O.3   202  IDS202     -0.1999
   1106  O62      -30.4630   34.8490   38.3560 O.3   202  IDS202     -0.0359
   1107  O62      -29.9510   34.6690   38.0660 O.3   202  IDS202     -0.2179
   1108  O62      -30.2510   35.0610   38.8950 O.3   202  IDS202     -0.0327
   1109  O62      -30.6700   34.5730   38.1000 O.3   202  IDS202     -0.2179
   1110  O62      -31.2290   35.3560   38.2060 O.3   202  IDS202     -0.2179
   1111  O62      -30.5580   35.0090   38.4150 O.3   202  IDS202     -0.0356
   1112  O62      -30.6520   34.5370   38.7440 O.3   202  IDS202     -0.0025
   1113  O62      -31.3260   35.2900   38.5900 O.3   202  IDS202     -0.0359
   1114  O62      -30.6760   35.2290   39.3680 O.3   202  IDS202     -0.4105
   1115  O62      -29.5870   34.1270   38.4260 O.3   202  IDS202     -0.0359
   1116  O62      -30.2490   34.8300   38.9470 O.3   202  IDS202     -0.0001
   1117  O62      -29.9210   34.2670   38.6450 O.3   202  IDS202     -0.2179
   1118  O62      -29.7910   34.6300   39.2090 O.3   202  IDS202     -0.0001
   1119  O62      -29.5230   34.1710   39.3400 O.3   202  IDS202     -0.0025
   1120  C6       -35.9270   37.5300   36.3020 C.3   203  SGN203      0.0958
   1121  C6       -35.2800   37.4690   37.2310 C.3   203  SGN203     -0.0650
   1122  C6       -35.2260   38.2440   36.3570 C.2   203  SGN203     -0.1058
   1123  C6       -35.6510   38.2310   36.3020 C.2   203  SGN203     -0.1058
   1124  C6       -35.0100   37.8380   37.0490 C.3   203  SGN203     -0.0776
   1125  C6       -35.0750   37.6860   36.7750 C.3   203  SGN203     -0.0235
   1126  C6       -35.1320   37.5930   36.3720 C.3   203  SGN203     -0.0391
   1127  C6       -34.4380   37.7780   35.8340 C.3   203  SGN203     -0.0482
   1128  C6       -34.7490   38.1840   36.4300 C.1   203  SGN203     -0.1225
   1129  C6       -34.6630   37.9020   36.2120 C.3   203  SGN203     -0.0500
   1130  C6       -35.1060   37.5320   36.1170 C.3   203  SGN203     -0.0020
   1131  C6       -35.2920   38.4370   36.5520 C.3   203  SGN203     -0.0531
   1132  C6       -35.1710   38.5290   36.1470 C.3   203  SGN203     -0.0531
   1133  C6       -35.5270   38.7480   36.2520 C.3   203  SGN203     -0.0531
   1134  C6       -35.3750   39.0210   37.6360 C.3   203  SGN203     -0.0776
   1135  C6       -35.0690   36.9650   36.1750 C.3   203  SGN203      0.1531
   1136  C6       -35.2550   37.4150   37.0880 C.3   203  SGN203      0.0862
   1137  C6       -35.4230   37.2510   36.7710 C.3   203  SGN203     -0.0530
   1138  C6       -34.9710   37.7690   38.3480 C.3   203  SGN203     -0.0776
   1139  C6       -34.8170   37.8390   38.3070 C.3   203  SGN203     -0.0776
   1140  O1S      -28.7020   29.2480   40.3130 O.3   201  LVZ201     -0.0534
   1141  O1S      -28.1210   28.8300   39.8070 O.3   201  LVZ201      0.0000
   1142  O1S      -27.9150   29.4720   39.9320 O.3   201  LVZ201      0.0000
   1143  O1S      -27.8020   29.3590   40.1290 O.3   201  LVZ201      0.0000
   1144  O1S      -27.9980   29.0960   40.2290 O.3   201  LVZ201      0.0000
   1145  O1S      -28.4130   28.7850   39.9090 O.2   201  LVZ201      0.0000
   1146  O1S      -27.8790   28.8890   39.7340 O.2   201  LVZ201      0.0000
   1147  O1S      -29.2200   28.0060   40.1200 O.3   201  LVZ201      0.0000
   1148  O1S      -28.2260   29.0510   40.5810 O.3   201  LVZ201      0.0000
   1149  O1S      -29.1450   29.0930   40.5530 O.3   201  LVZ201      0.0000
   1150  O1S      -27.9400   28.6120   40.1680 O.2   201  LVZ201      0.0000
   1151  O1S      -28.7270   29.5000   39.9530 O.3   201  LVZ201      0.0000
   1152  O1S      -28.1240   29.3720   40.3390 O.3   201  LVZ201      0.0000
   1153  O1S      -28.4150   29.2920   40.1620 O.3   201  LVZ201      0.0000
   1154  O1S      -28.0390   29.2210   40.5700 O.3   201  LVZ201      0.0000
   1155  O1S      -27.9740   28.5190   39.9820 O.2   201  LVZ201      0.0000
   1156  O1S      -28.0180   28.8210   40.0510 O.2   201  LVZ201      0.0000
   1157  O1S      -27.3510   28.3950   39.7380 O.3   201  LVZ201      0.0000
   1158  O1S      -28.0840   28.7020   40.1960 O.3   201  LVZ201      0.0000
   1159  O1S      -27.4570   28.5170   40.3770 O.2   201  LVZ201      0.0000
   1160 HO39      -30.5960   32.3340   37.3020 H     201  LVZ201      0.2100
   1161 HO39      -29.8930   32.3040   36.8310 H     201  LVZ201      0.0000
   1162 HO39      -29.6390   32.7860   36.8740 H     201  LVZ201      0.0000
   1163 HO39      -29.2290   32.4710   37.4140 H     201  LVZ201      0.0000
   1164 HO39      -30.2820   32.2150   36.9800 H     201  LVZ201      0.0000
   1165 HO39      -29.9020   32.5750   36.7900 H     201  LVZ201      0.0000
   1166 HO39      -30.0340   32.8160   36.9090 H     201  LVZ201      0.0000
   1167 HO39      -29.0880   32.4370   36.7580 H     201  LVZ201      0.0000
   1168 HO39      -30.1910   32.2710   37.2540 H     201  LVZ201      0.0000
   1169 HO39      -29.6860   32.4990   36.9590 H     201  LVZ201      0.0000
   1170 HO39      -29.3870   32.7290   37.8930 H     201  LVZ201      0.2563
   1171 HO39      -30.5090   30.9640   37.5690 H     201  LVZ201      0.0000
   1172 HO39      -30.2580   32.3590   37.3740 H     201  LVZ201      0.0000
   1173 HO39      -30.4590   32.5890   37.1520 H     201  LVZ201      0.0000
   1174 HO39      -29.7150   32.9270   37.7580 H     201  LVZ201      0.0000
   1175 HO39      -29.4420   31.8880   36.8750 H     201  LVZ201      0.2528
   1176 HO39      -29.7620   32.3020   37.3750 H     201  LVZ201      0.0000
   1177 HO39      -29.6760   32.2930   36.9390 H     201  LVZ201      0.0000
   1178 HO39      -29.3710   32.7690   37.7350 H     201  LVZ201      0.0000
   1179 HO39      -28.7970   32.7260   37.7900 H     201  LVZ201      0.2528
   1180  C2       -32.2820   39.7570   35.8860 C.3   203  SGN203      0.1014
   1181  C2       -31.5110   39.2870   36.1150 C.3   203  SGN203     -0.0650
   1182  C2       -31.2740   39.7450   35.6090 C.1   203  SGN203     -0.1225
   1183  C2       -31.6680   39.4070   35.6100 C.3   203  SGN203     -0.0354
   1184  C2       -31.2910   39.5510   35.6270 C.3   203  SGN203     -0.0236
   1185  C2       -31.4430   39.5650   35.8990 C.3   203  SGN203     -0.0531
   1186  C2       -31.4650   39.8260   35.8120 C.3   203  SGN203     -0.0617
   1187  C2       -30.4840   39.5630   35.5600 C.3   203  SGN203      0.0482
   1188  C2       -30.6720   39.7220   35.9090 C.3   203  SGN203      0.1042
   1189  C2       -30.8190   39.5360   35.6510 C.3   203  SGN203     -0.0588
   1190  C2       -31.4270   39.6620   35.4940 C.3   203  SGN203     -0.0650
   1191  C2       -31.3240   39.8850   35.7950 C.3   203  SGN203     -0.0650
   1192  C2       -31.1270   39.8860   35.8400 C.3   203  SGN203     -0.0463
   1193  C2       -31.5650   40.0180   35.6690 C.1   203  SGN203     -0.1225
   1194  C2       -31.2950   40.0980   36.3310 C.3   203  SGN203     -0.0533
   1195  C2       -31.2660   38.8280   36.2690 C.3   203  SGN203     -0.0776
   1196  C2       -31.7500   39.5820   36.3400 C.3   203  SGN203     -0.0533
   1197  C2       -31.6900   39.1870   36.0750 C.3   203  SGN203     -0.0410
   1198  C2       -31.5610   39.5390   36.5030 C.3   203  SGN203     -0.0776
   1199  C2       -31.3140   39.5670   36.4750 C.3   203  SGN203     -0.0444
   1200  S        -28.8800   35.0880   31.3990 S.3   202  IDS202      0.0549
   1201  S        -28.3950   34.1780   31.1390 S.3   202  IDS202      0.1370
   1202  S        -29.0530   34.5170   30.6250 S.3   202  IDS202      0.2322
   1203  S        -28.3500   34.4960   31.3530 S.3   202  IDS202      0.0113
   1204  S        -28.1770   34.2210   31.2190 S.3   202  IDS202      0.0000
   1205  S        -27.2500   35.1470   31.5100 S.3   202  IDS202      0.0000
   1206  S        -27.2210   35.0520   31.4970 S.2   202  IDS202      0.0213
   1207  S        -27.3580   33.8760   30.9760 S.3   202  IDS202      0.0308
   1208  S        -27.9830   33.9150   31.6750 S.3   202  IDS202      0.0000
   1209  S        -26.8220   34.9910   31.3840 S.3   202  IDS202      0.1171
   1210  S        -26.1140   35.4070   32.6440 S.3   202  IDS202      0.3202
   1211  S        -28.4470   34.8370   30.9900 S.3   202  IDS202      0.0000
   1212  S        -27.4200   35.1350   31.8090 S.2   202  IDS202      0.2278
   1213  S        -28.1480   34.8880   31.6390 S.3   202  IDS202      0.0106
   1214  S        -28.9590   34.3540   32.0670 S.3   202  IDS202      0.0113
   1215  S        -27.4700   34.7710   31.1210 S.3   202  IDS202      0.1994
   1216  S        -28.0260   34.9350   31.5670 S.3   202  IDS202      0.1274
   1217  S        -28.2160   34.4530   31.1990 S.3   202  IDS202      0.0007
   1218  S        -28.4550   34.7760   31.7520 S.3   202  IDS202      0.2118
   1219  S        -28.5710   34.6410   31.7240 S.3   202  IDS202      0.0694
   1220  C39      -29.2950   31.0230   36.8240 C.3   201  LVZ201      0.1055
   1221  C39      -28.9910   30.6300   36.0820 C.3   201  LVZ201     -0.0377
   1222  C39      -29.0460   31.0870   36.1640 C.3   201  LVZ201     -0.0619
   1223  C39      -28.9900   30.7160   36.5470 C.3   201  LVZ201     -0.0374
   1224  C39      -29.0490   30.7330   36.5500 C.3   201  LVZ201     -0.0531
   1225  C39      -28.8190   30.8980   36.2320 C.3   201  LVZ201     -0.0463
   1226  C39      -28.8940   31.2080   36.3810 C.3   201  LVZ201     -0.0595
   1227  C39      -28.5460   30.5820   36.2110 C.3   201  LVZ201     -0.0323
   1228  C39      -28.9820   30.8330   36.9250 C.3   201  LVZ201     -0.0471
   1229  C39      -28.7260   30.7670   36.6230 C.3   201  LVZ201     -0.0471
   1230  C39      -28.7940   31.0840   36.8140 C.3   201  LVZ201     -0.0440
   1231  C39      -29.2690   31.0100   36.1820 C.3   201  LVZ201     -0.0531
   1232  C39      -28.7140   31.1570   36.7720 C.3   201  LVZ201     -0.0315
   1233  C39      -29.4260   31.0160   36.6060 C.3   201  LVZ201     -0.0531
   1234  C39      -28.9600   31.1570   37.0510 C.2   201  LVZ201      0.1071
   1235  C39      -28.6470   30.2440   36.2020 C.3   201  LVZ201     -0.0776
   1236  C39      -28.9260   30.7470   36.6950 C.3   201  LVZ201     -0.0499
   1237  C39      -28.4870   30.8180   36.5480 C.3   201  LVZ201     -0.0256
   1238  C39      -28.7050   31.0970   37.0170 C.3   201  LVZ201     -0.0648
   1239  C39      -28.3620   30.9860   36.9610 C.3   201  LVZ201     -0.0417
   1240  C3       -30.5630   36.1700   34.1580 C.3   202  IDS202      0.1171
   1241  C3       -30.1540   35.9190   33.7910 C.3   202  IDS202     -0.0528
   1242  C3       -30.2380   36.2000   33.5740 C.3   202  IDS202      0.0938
   1243  C3       -30.4860   35.7940   33.8080 C.3   202  IDS202     -0.0231
   1244  C3       -29.9530   35.8770   33.9870 C.3   202  IDS202     -0.0210
   1245  C3       -29.3870   36.2980   34.1880 C.3   202  IDS202     -0.0776
   1246  C3       -29.4730   36.5250   34.0560 C.3   202  IDS202     -0.0590
   1247  C3       -29.3400   35.6300   33.4570 C.2   202  IDS202     -0.1024
   1248  C3       -29.9260   35.8200   34.1250 C.3   202  IDS202     -0.0525
   1249  C3       -29.1900   35.7960   33.8060 C.2   202  IDS202     -0.0883
   1250  C3       -29.2270   36.1740   34.2340 C.3   202  IDS202     -0.0260
   1251  C3       -29.8180   36.4190   33.9870 C.3   202  IDS202     -0.0414
   1252  C3       -29.5240   36.3290   34.2670 C.3   202  IDS202     -0.0623
   1253  C3       -30.2310   36.3220   34.0580 C.3   202  IDS202     -0.0504
   1254  C3       -30.3330   36.3750   34.7970 C.3   202  IDS202     -0.0458
   1255  C3       -29.3140   35.5220   34.0570 C.3   202  IDS202     -0.0201
   1256  C3       -29.7220   36.1480   34.4920 C.3   202  IDS202     -0.0470
   1257  C3       -30.1290   35.6990   34.1160 C.3   202  IDS202     -0.0439
   1258  C3       -30.3640   35.9950   34.7030 C.3   202  IDS202     -0.0653
   1259  C3       -29.7800   36.1220   34.8710 C.1   202  IDS202     -0.1225
   1260  O2S      -27.8480   27.2860   39.1790 O.3   201  LVZ201     -0.0534
   1261  O2S      -27.5550   26.9810   38.4790 O.2   201  LVZ201      0.0000
   1262  O2S      -27.3790   27.5220   38.6410 O.3   201  LVZ201      0.0000
   1263  O2S      -27.2480   27.2840   38.9510 O.3   201  LVZ201      0.0000
   1264  O2S      -27.5450   27.1370   38.9060 O.3   201  LVZ201      0.0000
   1265  O2S      -27.9220   26.9170   38.4190 O.3   201  LVZ201      0.0000
   1266  O2S      -27.9160   27.0120   38.2450 O.2   201  LVZ201      0.0000
   1267  O2S      -27.2920   27.1200   39.1670 O.3   201  LVZ201      0.0000
   1268  O2S      -27.7320   27.1790   39.2860 O.3   201  LVZ201      0.0000
   1269  O2S      -27.9620   27.4310   39.3910 O.3   201  LVZ201     -0.1365
   1270  O2S      -27.8810   26.9000   38.6220 O.3   201  LVZ201      0.0000
   1271  O2S      -27.7500   27.6370   38.7550 O.3   201  LVZ201      0.0000
   1272  O2S      -27.3590   27.6300   38.9900 O.3   201  LVZ201      0.0000
   1273  O2S      -28.1100   27.2970   38.9190 O.3   201  LVZ201     -0.1365
   1274  O2S      -27.5070   27.5760   38.9880 O.3   201  LVZ201      0.0000
   1275  O2S      -27.1360   26.7060   38.5870 O.2   201  LVZ201      0.0000
   1276  O2S      -27.4970   26.9070   38.6440 O.2   201  LVZ201      0.0000
   1277  O2S      -27.6610   26.6040   38.2290 O.3   201  LVZ201      0.0000
   1278  O2S      -27.8220   26.9690   38.5300 O.3   201  LVZ201      0.0000
   1279  O2S      -27.6020   26.7640   38.6240 O.3   201  LVZ201      0.0000
   1280  C49      -28.3680   31.9780   36.0720 C.3   201  LVZ201      0.1176
   1281  C49      -28.0080   31.6270   35.4920 C.3   201  LVZ201     -0.0655
   1282  C49      -28.2030   31.9070   35.1590 C.3   201  LVZ201     -0.0776
   1283  C49      -28.2250   31.5830   35.5840 C.1   201  LVZ201     -0.1225
   1284  C49      -28.0670   31.6550   35.7230 C.3   201  LVZ201     -0.0496
   1285  C49      -27.7260   31.7150   35.5080 C.3   201  LVZ201     -0.0350
   1286  C49      -27.8020   31.9720   35.5800 C.3   201  LVZ201     -0.0588
   1287  C49      -27.6400   31.3810   35.3010 C.2   201  LVZ201     -0.0911
   1288  C49      -27.9890   31.7310   36.1320 C.3   201  LVZ201     -0.0525
   1289  C49      -27.6030   31.5160   35.9440 C.3   201  LVZ201     -0.0622
   1290  C49      -27.7000   31.7630   35.9360 C.3   201  LVZ201     -0.0655
   1291  C49      -28.2810   31.9560   35.4020 C.1   201  LVZ201     -0.1225
   1292  C49      -27.7770   31.9660   35.8870 C.3   201  LVZ201     -0.0502
   1293  C49      -28.5490   32.0430   35.9430 C.3   201  LVZ201     -0.0622
   1294  C49      -28.1620   32.0250   36.1060 C.3   201  LVZ201     -0.0413
   1295  C49      -27.7000   31.2140   35.4240 C.3   201  LVZ201     -0.0776
   1296  C49      -28.0100   31.6580   35.8800 C.3   201  LVZ201     -0.0415
   1297  C49      -27.5300   31.7790   35.7410 C.3   201  LVZ201     -0.0776
   1298  C49      -27.8200   31.9510   36.1920 C.3   201  LVZ201     -0.0531
   1299  C49      -27.5010   31.7480   35.8960 C.3   201  LVZ201     -0.0650
   1300  O5       -33.9520   37.9990   35.2740 O.3   203  SGN203     -0.3414
   1301  O5       -33.4130   37.8100   35.7590 O.3   203  SGN203     -0.0025
   1302  O5       -33.1060   38.2370   35.0970 O.2   203  SGN203      0.0000
   1303  O5       -33.6500   38.0030   35.1090 O.3   203  SGN203     -0.4105
   1304  O5       -33.0240   37.8740   35.5210 O.3   203  SGN203     -0.0359
   1305  O5       -33.1620   37.8430   35.4520 O.3   203  SGN203     -0.2203
   1306  O5       -33.0240   38.0490   35.2160 O.3   203  SGN203     -0.0025
   1307  O5       -32.2940   38.0150   34.9110 O.3   203  SGN203     -0.2179
   1308  O5       -32.5340   38.1400   35.3650 O.2   203  SGN203     -0.3010
   1309  O5       -32.6210   38.1310   35.1730 O.3   203  SGN203     -0.0359
   1310  O5       -32.9660   37.8520   34.9400 O.2   203  SGN203      0.0000
   1311  O5       -33.1900   38.3570   35.4420 O.3   203  SGN203     -0.0001
   1312  O5       -32.9000   38.2310   35.3270 O.3   203  SGN203     -0.2179
   1313  O5       -33.3250   38.5570   35.1650 O.3   203  SGN203     -0.4105
   1314  O5       -33.3080   38.6560   36.2290 O.2   203  SGN203     -0.2980
   1315  O5       -32.8240   37.1810   35.3250 O.3   203  SGN203     -0.2203
   1316  O5       -33.3070   37.7540   35.7680 O.3   203  SGN203     -0.4105
   1317  O5       -33.3930   37.4540   35.6530 O.3   203  SGN203     -0.0717
   1318  O5       -33.2980   37.8300   36.6900 O.3   203  SGN203     -0.3953
   1319  O5       -33.0510   37.8480   36.6590 O.3   203  SGN203     -0.4105
   1320  C59      -27.4800   31.2190   35.1720 C.3   201  LVZ201      0.1149
   1321  C59      -26.9100   30.8910   34.6900 C.3   201  LVZ201     -0.0776
   1322  C59      -27.3670   31.0510   34.2650 C.3   201  LVZ201     -0.0681
   1323  C59      -27.2720   30.8760   34.6710 C.3   201  LVZ201     -0.0681
   1324  C59      -27.0810   30.8410   34.8880 C.3   201  LVZ201     -0.0776
   1325  C59      -26.9390   30.8410   34.6130 C.2   201  LVZ201     -0.0857
   1326  C59      -26.9170   31.1110   34.7130 C.3   201  LVZ201     -0.0655
   1327  C59      -26.6330   30.5580   34.5590 C.2   201  LVZ201     -0.1021
   1328  C59      -27.0850   30.8510   35.2380 C.3   201  LVZ201     -0.0566
   1329  C59      -26.7760   30.4840   35.2040 C.3   201  LVZ201      0.0716
   1330  C59      -27.0810   30.8060   34.8900 C.3   201  LVZ201     -0.0776
   1331  C59      -27.3870   31.1100   34.5370 C.3   201  LVZ201     -0.0776
   1332  C59      -26.9580   31.0990   34.9230 C.3   201  LVZ201     -0.0200
   1333  C59      -27.7140   31.1420   34.9480 C.2   201  LVZ201     -0.1026
   1334  C59      -27.3980   31.1680   35.0040 C.3   201  LVZ201     -0.0566
   1335  C59      -26.8560   30.4240   34.4750 C.3   201  LVZ201     -0.0655
   1336  C59      -27.1010   30.9690   34.9380 C.1   201  LVZ201     -0.1225
   1337  C59      -26.4750   31.0510   34.8920 C.3   201  LVZ201     -0.0566
   1338  C59      -26.9250   31.2520   35.2060 C.1   201  LVZ201     -0.1225
   1339  C59      -27.0670   30.7480   34.7990 C.3   201  LVZ201     -0.0588
   1340  H2       -30.3070   34.1280   33.5880 H     202  IDS202      0.0698
   1341  H2       -30.1050   33.9590   32.9000 H     202  IDS202      0.0000
   1342  H2       -30.3780   34.0260   33.0800 H     202  IDS202      0.0000
   1343  H2       -30.2150   33.7730   33.1160 H     202  IDS202      0.0000
   1344  H2       -29.9800   33.9650   33.3140 H     202  IDS202      0.0000
   1345  H2       -29.4060   34.4910   33.1830 H     202  IDS202      0.0000
   1346  H2       -29.4100   34.7070   33.1820 H     202  IDS202      0.0263
   1347  H2       -29.3470   33.5370   32.7780 H     202  IDS202      0.0000
   1348  H2       -29.9530   33.8120   33.5300 H     202  IDS202      0.0000
   1349  H2       -28.9230   33.8270   33.1270 H     202  IDS202      0.0194
   1350  H2       -28.7080   34.3120   33.5050 H     202  IDS202      0.0194
   1351  H2       -30.0590   34.4930   33.0250 H     202  IDS202      0.0194
   1352  H2       -29.1980   34.3310   33.4440 H     202  IDS202      0.0194
   1353  H2       -30.1430   34.2850   33.4100 H     202  IDS202      0.0000
   1354  H2       -30.5070   34.3430   34.1950 H     202  IDS202      0.0000
   1355  H2       -29.3800   33.6220   32.8810 H     202  IDS202      0.0000
   1356  H2       -29.6420   34.2240   33.4880 H     202  IDS202      0.0230
   1357  H2       -29.8120   33.7140   33.5190 H     202  IDS202      0.0000
   1358  H2       -30.2440   33.9890   33.7730 H     202  IDS202      0.0000
   1359  H2       -29.8360   33.9620   34.0750 H     202  IDS202      0.0307
   1360  H5       -34.0380   37.2900   37.2480 H     203  SGN203      0.0647
   1361  H5       -33.2010   36.9070   37.6460 H     203  SGN203      0.0000
   1362  H5       -33.4130   37.3900   36.9260 H     203  SGN203      0.0265
   1363  H5       -34.0740   37.1190   36.9760 H     203  SGN203      0.0000
   1364  H5       -32.9470   37.3390   37.5850 H     203  SGN203      0.0000
   1365  H5       -33.1030   37.1210   37.5460 H     203  SGN203      0.0000
   1366  H5       -33.1070   37.1730   37.0230 H     203  SGN203      0.0000
   1367  H5       -32.5870   36.9200   36.5930 H     203  SGN203      0.0000
   1368  H5       -32.8650   37.5360   37.2770 H     203  SGN203      0.2052
   1369  H5       -32.8930   37.1130   37.0040 H     203  SGN203      0.0000
   1370  H5       -33.1200   37.0610   36.8430 H     203  SGN203      0.0194
   1371  H5       -33.3260   37.6420   37.4380 H     203  SGN203      0.0194
   1372  H5       -33.4470   37.6890   37.2380 H     203  SGN203      0.0252
   1373  H5       -33.7160   37.8020   37.0510 H     203  SGN203      0.0194
   1374  H5       -33.4230   38.3770   38.3520 H     203  SGN203      0.0291
   1375  H5       -33.2550   36.0340   37.0340 H     203  SGN203      0.2052
   1376  H5       -33.3040   36.8920   37.6300 H     203  SGN203      0.0000
   1377  H5       -33.4480   36.6930   37.5550 H     203  SGN203      0.0000
   1378  H5       -32.8980   37.5010   38.7600 H     203  SGN203      0.0000
   1379  H5       -32.7100   37.4290   38.6620 H     203  SGN203      0.0000
   1380  H62      -36.1370   37.8510   35.2820 H     203  SGN203      0.0601
   1381  H62      -35.8330   37.8940   36.3940 H     203  SGN203      0.0000
   1382  H62      -35.6550   39.0010   35.6990 H     203  SGN203      0.0265
   1383  H62      -35.8630   38.4150   35.2490 H     203  SGN203      0.0000
   1384  H62      -35.5500   38.3740   36.2690 H     203  SGN203      0.0265
   1385  H62      -35.2930   37.8890   35.7270 H     203  SGN203      0.0314
   1386  H62      -35.2750   37.6890   35.2960 H     203  SGN203      0.0000
   1387  H62      -34.7050   38.0830   34.8220 H     203  SGN203      0.0000
   1388  H62      -35.0090   38.0150   35.3850 H     203  SGN203      0.0267
   1389  H62      -34.7350   37.0020   35.6000 H     203  SGN203      0.0905
   1390  H62      -35.2260   36.6710   35.4610 H     203  SGN203      0.0000
   1391  H62      -35.5610   39.0510   35.6930 H     203  SGN203      0.0000
   1392  H62      -35.3990   39.0490   35.2160 H     203  SGN203      0.0000
   1393  H62      -35.7020   39.5620   35.5480 H     203  SGN203      0.0000
   1394  H62      -35.7890   39.6080   36.8170 H     203  SGN203      0.0000
   1395  H62      -35.2530   37.2050   35.1290 H     203  SGN203      0.0000
   1396  H62      -35.8890   38.1930   36.6630 H     203  SGN203      0.0529
   1397  H62      -35.8630   37.9760   36.0850 H     203  SGN203      0.0000
   1398  H62      -35.5550   38.2470   37.5620 H     203  SGN203      0.0000
   1399  H62      -35.4190   38.0840   37.4330 H     203  SGN203      0.0000
   1400  O39      -29.9880   31.7720   37.7880 O.3   201  LVZ201     -0.3874
   1401  O39      -30.0220   31.3530   36.8230 O.3   201  LVZ201     -0.2179
   1402  O39      -29.4750   31.9040   37.2160 O.3   201  LVZ201     -0.2528
   1403  O39      -29.6120   31.5980   37.5330 O.3   201  LVZ201     -0.2179
   1404  O39      -29.7280   31.6170   37.4880 O.3   201  LVZ201     -0.2203
   1405  O39      -29.5170   31.7620   37.1250 O.3   201  LVZ201     -0.0717
   1406  O39      -29.6780   32.0230   37.3160 O.3   201  LVZ201     -0.2203
   1407  O39      -29.2770   31.5490   37.0690 O.3   201  LVZ201     -0.2528
   1408  O39      -29.8020   31.6000   37.8190 O.3   201  LVZ201     -0.2179
   1409  O39      -29.4750   31.7010   37.4500 O.3   201  LVZ201     -0.0717
   1410  O39      -29.0750   31.8230   37.9640 O.3   201  LVZ201     -0.0383
   1411  O39      -29.9790   31.6930   37.2370 O.3   201  LVZ201     -0.0383
   1412  O39      -29.4550   31.9690   37.7240 O.3   201  LVZ201     -0.0383
   1413  O39      -30.1800   31.7890   37.6030 O.3   201  LVZ201     -0.0383
   1414  O39      -29.3790   32.0860   38.0780 O.3   201  LVZ201     -0.2179
   1415  O39      -29.2970   31.0150   37.2470 O.2   201  LVZ201     -0.3047
   1416  O39      -29.5320   31.4750   37.8050 O.3   201  LVZ201     -0.2203
   1417  O39      -29.2560   31.5720   37.4140 O.3   201  LVZ201     -0.2203
   1418  O39      -29.0910   31.9440   38.1380 O.3   201  LVZ201     -0.2528
   1419  O39      -28.5800   31.8470   38.1090 O.3   201  LVZ201     -0.2528
   1420  C69      -26.5280   32.0710   34.2910 C.3   201  LVZ201      0.0957
   1421  C69      -25.8920   31.7880   34.1220 C.1   201  LVZ201     -0.1225
   1422  C69      -26.3780   31.8460   33.3430 C.3   201  LVZ201     -0.0776
   1423  C69      -26.2580   31.7060   34.0540 C.3   201  LVZ201     -0.0588
   1424  C69      -26.1040   31.6970   34.1220 C.3   201  LVZ201     -0.0394
   1425  C69      -25.8340   31.6650   33.9190 C.3   201  LVZ201     -0.0386
   1426  C69      -25.6530   31.7710   34.1790 C.3   201  LVZ201     -0.0530
   1427  C69      -25.6220   31.4220   33.6600 C.3   201  LVZ201      0.0798
   1428  C69      -26.0160   31.6330   34.4930 C.1   201  LVZ201     -0.1225
   1429  C69      -25.7100   31.2000   34.4130 C.3   201  LVZ201     -0.0776
   1430  C69      -25.9080   31.3440   34.0510 C.3   201  LVZ201     -0.0236
   1431  C69      -26.3580   32.0240   33.9110 C.3   201  LVZ201     -0.0530
   1432  C69      -25.9010   31.9000   34.0850 C.3   201  LVZ201     -0.0655
   1433  C69      -26.7700   31.9590   34.0820 C.3   201  LVZ201     -0.0650
   1434  C69      -26.4250   32.0500   34.2550 C.3   201  LVZ201     -0.0655
   1435  C69      -25.9120   31.2570   33.6540 C.3   201  LVZ201      0.0829
   1436  C69      -26.0140   31.7360   34.1770 C.3   201  LVZ201     -0.0776
   1437  C69      -25.4360   31.9910   34.4370 C.3   201  LVZ201     -0.0650
   1438  C69      -25.9640   32.1970   34.5700 C.3   201  LVZ201     -0.0776
   1439  C69      -26.1260   31.1890   33.6700 C.3   201  LVZ201     -0.0776
   1440  O2S      -30.7860   42.1870   34.4870 O.3   203  SGN203     -0.1022
   1441  O2S      -30.6010   41.3820   34.4410 O.3   203  SGN203      0.0000
   1442  O2S      -30.1830   41.7600   33.6460 O.2   203  SGN203      0.0000
   1443  O2S      -30.4950   41.3730   33.8930 O.3   203  SGN203      0.0000
   1444  O2S      -28.0570   40.0820   33.6680 O.2   203  SGN203      0.0000
   1445  O2S      -30.4770   41.7270   34.1640 O.3   203  SGN203      0.0000
   1446  O2S      -30.2490   41.9270   34.0960 O.2   203  SGN203      0.0000
   1447  O2S      -29.6170   41.3640   33.3910 O.2   203  SGN203      0.0000
   1448  O2S      -29.4660   40.4070   33.5110 O.2   203  SGN203      0.0000
   1449  O2S      -30.2300   41.7220   33.8150 O.3   203  SGN203      0.0000
   1450  O2S      -30.4080   41.5830   33.6930 O.3   203  SGN203      0.0000
   1451  O2S      -30.2400   42.1130   34.1050 O.3   203  SGN203      0.0000
   1452  O2S      -30.0410   41.6210   33.6440 O.2   203  SGN203      0.0000
   1453  O2S      -30.4830   41.3750   33.3100 O.3   203  SGN203      0.0000
   1454  O2S      -30.6690   41.5440   34.0420 O.3   203  SGN203      0.0000
   1455  O2S      -30.3930   41.4260   34.9990 O.3   203  SGN203      0.0000
   1456  O2S      -31.0980   41.7870   34.4690 O.3   203  SGN203      0.0000
   1457  O2S      -30.5830   39.8480   33.4990 O.2   203  SGN203      0.0000
   1458  O2S      -30.7570   41.5460   34.4190 O.3   203  SGN203      0.0000
   1459  O2S      -30.5330   39.6030   33.6170 O.3   203  SGN203     -0.0171
   1460  O1S      -29.5940   36.2640   30.9940 O.3   202  IDS202     -0.0543
   1461  O1S      -29.6710   34.2870   30.4740 O.3   202  IDS202     -0.0972
   1462  O1S      -30.3520   35.0700   30.3340 O.3   202  IDS202      0.0000
   1463  O1S      -29.1070   35.4560   30.6470 O.3   202  IDS202      0.0000
   1464  O1S      -28.9800   34.9930   30.2990 O.3   202  IDS202     -0.1152
   1465  O1S      -27.5390   36.4530   30.9450 O.3   202  IDS202      0.0000
   1466  O1S      -26.9590   36.1460   30.5960 O.2   202  IDS202      0.0000
   1467  O1S      -28.2560   34.5910   30.1270 O.3   202  IDS202      0.0000
   1468  O1S      -28.9760   34.3350   30.7840 O.2   202  IDS202      0.0000
   1469  O1S      -27.1920   36.3240   31.0710 O.2   202  IDS202      0.0000
   1470  O1S      -25.6720   36.7070   32.3500 O.2   202  IDS202     -0.1067
   1471  O1S      -28.5440   36.0190   30.2220 O.3   202  IDS202      0.0000
   1472  O1S      -28.0880   36.2230   31.1470 O.3   202  IDS202      0.0000
   1473  O1S      -28.9890   35.8400   31.0330 O.3   202  IDS202      0.0000
   1474  O1S      -30.2620   34.6780   31.5490 O.3   202  IDS202      0.0000
   1475  O1S      -26.1790   35.1960   30.6640 O.2   202  IDS202     -0.1067
   1476  O1S      -28.6510   36.1910   31.1130 O.3   202  IDS202      0.0000
   1477  O1S      -28.0080   35.5990   30.3680 O.3   202  IDS202      0.0000
   1478  O1S      -29.4560   35.2650   30.8080 O.3   202  IDS202      0.0000
   1479  O1S      -29.8680   35.1130   31.3050 O.3   202  IDS202      0.0000
   1480  H2       -32.8220   40.5220   35.3290 H     203  SGN203      0.0547
   1481  H2       -32.1440   40.0970   35.7510 H     203  SGN203      0.0000
   1482  H2       -31.7490   40.5630   35.0680 H     203  SGN203      0.0000
   1483  H2       -32.1300   40.2900   35.1680 H     203  SGN203      0.0000
   1484  H2       -31.8050   40.3130   35.0410 H     203  SGN203      0.0000
   1485  H2       -32.0200   40.3770   35.4570 H     203  SGN203      0.0000
   1486  H2       -31.9430   40.5260   35.1260 H     203  SGN203      0.0000
   1487  H2       -31.0760   40.4250   35.1820 H     203  SGN203      0.0000
   1488  H2       -31.3760   40.3130   35.1260 H     203  SGN203      0.0000
   1489  H2       -32.0620   40.3230   34.9040 H     203  SGN203      0.0000
   1490  H2       -31.8980   40.6460   35.2670 H     203  SGN203      0.0000
   1491  H2       -31.6590   40.6270   35.2430 H     203  SGN203      0.0000
   1492  H2       -32.1240   40.7300   35.0620 H     203  SGN203      0.0000
   1493  H2       -31.8470   40.7840   35.6890 H     203  SGN203      0.0000
   1494  H2       -31.7930   39.6670   35.8140 H     203  SGN203      0.0230
   1495  H2       -32.4890   40.3050   35.9970 H     203  SGN203      0.0000
   1496  H2       -32.2750   39.9240   35.5250 H     203  SGN203      0.0000
   1497  H2       -32.2340   40.0910   35.8470 H     203  SGN203      0.0000
   1498  H2       -32.0060   40.0770   35.8060 H     203  SGN203      0.0233
   1499  HO3      -33.3450   41.6660   37.0540 H     203  SGN203      0.2100
   1500  HO3      -32.4560   41.2000   37.9200 H     203  SGN203      0.0000
   1501  HO3      -31.4810   41.7680   37.0580 H     203  SGN203      0.0000
   1502  HO3      -32.6250   41.2940   37.7150 H     203  SGN203      0.2052
   1503  HO3      -31.4840   41.3340   38.2480 H     203  SGN203      0.2528
   1504  HO3      -31.1270   41.4060   37.1110 H     203  SGN203      0.2562
   1505  HO3      -32.6950   41.6900   36.7670 H     203  SGN203      0.0000
   1506  HO3      -31.5130   40.7080   38.3260 H     203  SGN203      0.2528
   1507  HO3      -31.4570   41.8530   37.0260 H     203  SGN203      0.0000
   1508  HO3      -31.1080   40.9050   38.4350 H     203  SGN203      0.0000
   1509  HO3      -32.1010   41.5990   36.9640 H     203  SGN203      0.0000
   1510  HO3      -31.8800   41.9610   36.7660 H     203  SGN203      0.0000
   1511  HO3      -32.2620   41.9050   36.8960 H     203  SGN203      0.0000
   1512  HO3      -30.7820   41.5500   37.5270 H     203  SGN203      0.0000
   1513  HO3      -31.4920   42.3510   36.9230 H     203  SGN203      0.0000
   1514  HO3      -30.9080   40.3780   38.2180 H     203  SGN203      0.0000
   1515  HO3      -31.6140   41.5270   37.9110 H     203  SGN203      0.0000
   1516  HO3      -32.0640   41.1790   37.3890 H     203  SGN203      0.2090
   1517  HO3      -31.1240   41.7180   37.3340 H     203  SGN203      0.0000
   1518  HO3      -31.4840   41.9000   38.7620 H     203  SGN203      0.0000
   1519  O5S      -23.8510   31.0960   34.7470 O.3   201  LVZ201     -0.0755
   1520  O5S      -23.2730   30.4800   34.6750 O.3   201  LVZ201      0.0000
   1521  O5S      -23.6790   30.5260   33.4700 O.2   201  LVZ201     -0.2303
   1522  O5S      -23.6780   30.4240   34.6280 O.3   201  LVZ201      0.0000
   1523  O5S      -23.7920   30.0450   34.5670 O.3   201  LVZ201      0.0000
   1524  O5S      -23.0810   30.6970   34.9110 O.3   201  LVZ201     -0.0013
   1525  O5S      -23.1450   30.5860   34.6930 O.3   201  LVZ201      0.0000
   1526  O5S      -22.9640   30.3960   34.6780 O.3   201  LVZ201      0.0000
   1527  O5S      -23.3060   30.9900   34.7880 O.3   201  LVZ201      0.0000
   1528  O5S      -23.3270   29.6050   34.2370 O.3   201  LVZ201      0.0000
   1529  O5S      -24.3560   29.0370   33.6460 O.3   201  LVZ201     -0.0358
   1530  O5S      -23.9080   30.7270   34.6780 O.3   201  LVZ201      0.0000
   1531  O5S      -23.3290   30.4900   34.1730 O.3   201  LVZ201      0.0000
   1532  O5S      -23.6230   31.5860   34.3290 O.2   201  LVZ201      0.0000
   1533  O5S      -23.6260   30.9660   34.8280 O.2   201  LVZ201      0.0000
   1534  O5S      -23.1320   30.1160   34.3730 O.3   201  LVZ201      0.0000
   1535  O5S      -23.5150   31.0990   35.0110 O.3   201  LVZ201     -0.0164
   1536  O5S      -22.2940   30.3890   33.2660 O.3   201  LVZ201      0.0000
   1537  O5S      -22.9140   30.4780   33.0900 O.3   201  LVZ201     -0.0972
   1538  O5S      -22.4600   31.9220   33.8910 O.3   201  LVZ201      0.0000
   1539  HO4      -36.0270   39.8940   38.2700 H     203  SGN203      0.2100
   1540  HO4      -33.1030   39.5210   39.7260 H     203  SGN203      0.2052
   1541  HO4      -33.1390   40.1490   39.1140 H     203  SGN203      0.0000
   1542  HO4      -33.6310   39.8280   39.0890 H     203  SGN203      0.2563
   1543  HO4      -33.7500   40.3100   39.0800 H     203  SGN203      0.0000
   1544  HO4      -33.9900   39.9380   39.2480 H     203  SGN203      0.0000
   1545  HO4      -33.8240   40.0460   39.1090 H     203  SGN203      0.2052
   1546  HO4      -32.8380   37.9380   38.6290 H     203  SGN203      0.0529
   1547  HO4      -34.2030   40.0370   38.5960 H     203  SGN203      0.2052
   1548  HO4      -34.0320   38.6910   38.6370 H     203  SGN203      0.2563
   1549  HO4      -34.8760   38.8860   38.2180 H     203  SGN203      0.0000
   1550  HO4      -33.2380   39.7330   39.2840 H     203  SGN203      0.2052
   1551  HO4      -33.0600   39.1570   38.9650 H     203  SGN203      0.0194
   1552  HO4      -33.3170   40.3180   39.1280 H     203  SGN203      0.2052
   1553  HO4      -33.0590   41.2040   39.8230 H     203  SGN203      0.0000
   1554  HO4      -33.4640   38.4720   39.4920 H     203  SGN203      0.0000
   1555  HO4      -33.3440   38.0250   39.6120 H     203  SGN203      0.0000
   1556  HO4      -33.2910   38.1310   39.3700 H     203  SGN203      0.2528
   1557  HO4      -33.9350   39.3610   40.2810 H     203  SGN203      0.0000
   1558  HO4      -32.4660   40.6200   40.0940 H     203  SGN203      0.0000
   1559  H3       -32.3510   39.1530   37.9160 H     203  SGN203      0.0638
   1560  H3       -31.1100   38.7650   38.2260 H     203  SGN203      0.0000
   1561  H3       -31.1700   38.9770   37.6410 H     203  SGN203      0.0000
   1562  H3       -31.6290   38.6940   37.6560 H     203  SGN203      0.0000
   1563  H3       -31.0400   39.0480   37.6340 H     203  SGN203      0.0000
   1564  H3       -31.2020   38.9400   37.9690 H     203  SGN203      0.0000
   1565  H3       -31.4000   39.4050   37.9230 H     203  SGN203      0.0000
   1566  H3       -30.6150   38.8120   37.5920 H     203  SGN203      0.0000
   1567  H3       -30.8890   39.2370   38.0490 H     203  SGN203      0.0000
   1568  H3       -30.7670   39.0410   37.7550 H     203  SGN203      0.0000
   1569  H3       -31.4620   38.9480   37.5390 H     203  SGN203      0.0194
   1570  H3       -31.2310   39.5380   37.9710 H     203  SGN203      0.0194
   1571  H3       -31.2530   39.4600   37.9270 H     203  SGN203      0.0000
   1572  H3       -31.4570   39.3820   37.7380 H     203  SGN203      0.0194
   1573  H3       -31.1910   39.9190   38.4560 H     203  SGN203      0.2123
   1574  H3       -31.2310   37.8850   38.2300 H     203  SGN203      0.0000
   1575  H3       -31.4910   39.0650   38.3120 H     203  SGN203      0.0000
   1576  H3       -31.4990   38.5960   38.1760 H     203  SGN203      0.0194
   1577  H3       -31.1620   39.6160   38.7470 H     203  SGN203      0.0000
   1578  H3       -30.7140   39.7440   38.5670 H     203  SGN203      0.0000
   1579  O3       -31.4210   36.2250   33.0770 O.3   202  IDS202     -0.3863
   1580  O3       -30.9180   36.4040   32.6650 O.3   202  IDS202     -0.2203
   1581  O3       -31.1710   36.5990   32.5190 O.2   202  IDS202      0.0000
   1582  O3       -31.1310   36.0390   32.5720 O.3   202  IDS202     -0.0717
   1583  O3       -30.6680   36.1780   32.7780 O.3   202  IDS202     -0.2179
   1584  O3       -29.7700   36.8890   32.9880 O.3   202  IDS202     -0.4105
   1585  O3       -29.9720   37.1880   32.9440 O.3   202  IDS202     -0.4105
   1586  O3       -30.1960   36.0170   32.3900 O.3   202  IDS202     -0.2528
   1587  O3       -30.9620   35.9130   33.0930 O.3   202  IDS202     -0.0359
   1588  O3       -29.8280   36.0630   32.5920 O.3   202  IDS202     -0.2528
   1589  O3       -29.5300   36.4660   32.8320 O.3   202  IDS202     -0.2203
   1590  O3       -30.4790   37.0020   32.8940 O.3   202  IDS202     -0.2499
   1591  O3       -30.1660   36.5180   33.0030 O.3   202  IDS202     -0.2203
   1592  O3       -30.8850   36.6690   32.8110 O.2   202  IDS202      0.0000
   1593  O3       -31.0860   36.6380   33.6970 O.3   202  IDS202     -0.0359
   1594  O3       -29.8320   36.1890   32.9260 O.3   202  IDS202     -0.0717
   1595  O3       -30.3610   36.6550   33.2750 O.3   202  IDS202     -0.2341
   1596  O3       -31.0710   35.8020   33.0020 O.3   202  IDS202     -0.2203
   1597  O3       -31.2830   36.1980   33.6290 O.3   202  IDS202     -0.0049
   1598  O3       -30.6420   36.6130   33.8450 O.3   202  IDS202     -0.2179
   1599  HO3      -32.2850   36.3710   33.4710 H     202  IDS202      0.2100
   1600  HO3      -31.1300   37.3290   32.8170 H     202  IDS202      0.0000
   1601  HO3      -30.7730   36.4200   31.6630 H     202  IDS202      0.0000
   1602  HO3      -30.5880   35.8700   31.7970 H     202  IDS202      0.0000
   1603  HO3      -30.8510   37.1190   32.7360 H     202  IDS202      0.2531
   1604  HO3      -29.6520   37.8420   32.9670 H     202  IDS202      0.0000
   1605  HO3      -29.3800   37.9170   32.7420 H     202  IDS202      0.0000
   1606  HO3      -30.2600   36.9580   32.5660 H     202  IDS202      0.2052
   1607  HO3      -31.7540   35.4330   33.3460 H     202  IDS202      0.0000
   1608  HO3      -29.8110   35.6430   32.4260 H     202  IDS202      0.2528
   1609  HO3      -29.9970   37.8210   32.7560 H     202  IDS202      0.0000
   1610  HO3      -29.7830   36.2520   32.1640 H     202  IDS202      0.2528
   1611  HO3      -30.2670   36.5610   32.0850 H     202  IDS202      0.0000
   1612  HO3      -30.8200   37.5550   33.6000 H     202  IDS202      0.0000
   1613  HO3      -29.1300   36.2790   32.2780 H     202  IDS202      0.0000
   1614  HO3      -29.6670   36.6300   32.6120 H     202  IDS202      0.2052
   1615  HO3      -30.5800   36.3910   32.4250 H     202  IDS202      0.2562
   1616  HO3      -31.7770   35.4160   33.3730 H     202  IDS202      0.0000
   1617  HO3      -30.7940   37.5590   33.8950 H     202  IDS202      0.2563
   1618  H69      -27.1140   32.7970   33.7280 H     201  LVZ201      0.0601
   1619  H69      -26.4650   32.4900   33.5160 H     201  LVZ201      0.0000
   1620  H69      -26.8020   32.7890   32.9970 H     201  LVZ201      0.0000
   1621  H69      -26.6470   32.5870   33.5440 H     201  LVZ201      0.0000
   1622  H69      -26.6240   32.4670   33.5520 H     201  LVZ201      0.0000
   1623  H69      -26.2220   32.4130   33.2280 H     201  LVZ201      0.0000
   1624  H69      -25.9600   32.6120   33.5560 H     201  LVZ201      0.0000
   1625  H69      -26.1750   32.1140   33.0250 H     201  LVZ201      0.0194
   1626  H69      -26.4860   32.4250   33.9090 H     201  LVZ201      0.0265
   1627  H69      -25.8180   32.2600   34.1820 H     201  LVZ201      0.0194
   1628  H69      -26.1590   32.3860   33.8560 H     201  LVZ201      0.0265
   1629  H69      -26.8280   32.7980   33.3040 H     201  LVZ201      0.0000
   1630  H69      -26.3970   32.7110   33.5530 H     201  LVZ201      0.0000
   1631  H69      -27.4140   32.4610   33.3610 H     201  LVZ201      0.0000
   1632  H69      -26.9190   32.7620   33.5930 H     201  LVZ201      0.0000
   1633  H69      -26.4050   31.8610   32.8930 H     201  LVZ201      0.0194
   1634  H69      -26.5640   32.4550   33.5700 H     201  LVZ201      0.0000
   1635  H69      -25.7530   32.4860   33.5180 H     201  LVZ201      0.0000
   1636  H69      -26.3600   32.6020   33.6380 H     201  LVZ201      0.0000
   1637  H69      -26.0350   30.4410   32.8840 H     201  LVZ201      0.0194
   1638  H2       -26.5220   26.7680   33.1470 H     201  LVZ201      0.0254
   1639  H2       -25.5940   26.9280   32.6880 H     201  LVZ201      0.0000
   1640  H2       -26.6830   26.2180   32.9700 H     201  LVZ201      0.0000
   1641  H2       -26.8350   26.6050   32.6330 H     201  LVZ201      0.0230
   1642  H2       -26.6690   27.3120   33.4040 H     201  LVZ201      0.0263
   1643  H2       -25.9740   26.2590   32.9060 H     201  LVZ201      0.0000
   1644  H2       -26.2320   26.6040   32.9360 H     201  LVZ201      0.0000
   1645  H2       -26.5830   25.9620   33.0000 H     201  LVZ201      0.0000
   1646  H2       -26.7210   28.4250   33.2380 H     201  LVZ201      0.0000
   1647  H2       -26.8190   26.1570   33.3430 H     201  LVZ201      0.0000
   1648  H2       -30.0820   28.1290   32.8180 H     201  LVZ201      0.0000
   1649  H2       -26.7050   28.0510   32.8120 H     201  LVZ201      0.0230
   1650  H2       -27.1980   28.4290   33.0790 H     201  LVZ201      0.0000
   1651  H2       -27.7910   28.0540   32.9510 H     201  LVZ201      0.0000
   1652  H2       -29.6320   27.0760   33.2040 H     201  LVZ201      0.0000
   1653  H2       -28.1260   26.5340   32.6220 H     201  LVZ201      0.0000
   1654  H2       -27.2470   28.3140   33.0600 H     201  LVZ201      0.0000
   1655  H2       -28.1170   26.5410   33.1960 H     201  LVZ201      0.0000
   1656  H2       -25.7650   27.0770   35.2800 H     201  LVZ201      0.0000
   1657  H2       -27.5110   26.3390   33.0310 H     201  LVZ201      0.0000
   1658  O3S      -30.0480   27.4350   39.9950 O.3   201  LVZ201     -0.0534
   1659  O3S      -29.6730   27.0100   39.5070 O.3   201  LVZ201      0.0000
   1660  O3S      -29.5820   27.7230   39.5890 O.3   201  LVZ201      0.0000
   1661  O3S      -29.4350   27.5650   39.9750 O.3   201  LVZ201      0.0000
   1662  O3S      -29.7480   27.4930   39.8220 O.3   201  LVZ201      0.0000
   1663  O3S      -30.0670   27.1660   39.2520 O.3   201  LVZ201      0.0000
   1664  O3S      -29.9040   27.5680   39.4070 O.3   201  LVZ201      0.0000
   1665  O3S      -27.3510   29.3220   39.9300 O.3   201  LVZ201      0.0000
   1666  O3S      -29.9540   27.5080   40.3110 O.3   201  LVZ201      0.0000
   1667  O3S      -30.3120   27.1970   39.5340 O.3   201  LVZ201      0.0000
   1668  O3S      -29.9260   27.3220   39.7330 O.3   201  LVZ201      0.0000
   1669  O3S      -30.0380   27.5650   39.5510 O.3   201  LVZ201      0.0000
   1670  O3S      -29.5240   27.5220   39.8420 O.2   201  LVZ201      0.0000
   1671  O3S      -30.1650   27.8060   39.9970 O.3   201  LVZ201      0.0000
   1672  O3S      -29.6080   27.5210   40.1040 O.3   201  LVZ201      0.0000
   1673  O3S      -29.3650   26.7980   39.3220 O.3   201  LVZ201      0.0000
   1674  O3S      -29.6630   27.1760   39.6280 O.2   201  LVZ201      0.0000
   1675  O3S      -29.4540   27.2800   39.6610 O.3   201  LVZ201      0.0000
   1676  O3S      -29.8960   27.3330   39.6540 O.3   201  LVZ201      0.0000
   1677  O3S      -29.4640   27.3220   39.9300 O.3   201  LVZ201      0.0000
   1678  S29      -24.3450   31.0040   33.4160 S.3   201  LVZ201      0.2624
   1679  S29      -23.5870   30.9910   33.3650 S.3   201  LVZ201      0.0023
   1680  S29      -24.2220   31.1440   32.2900 S.2   201  LVZ201      0.2278
   1681  S29      -24.0060   30.6730   33.2570 S.3   201  LVZ201      0.0000
   1682  S29      -24.0200   30.6070   33.2710 S.3   201  LVZ201      0.1936
   1683  S29      -23.3370   31.0130   33.5150 S.3   201  LVZ201      0.0000
   1684  S29      -23.5520   30.6360   33.2530 S.3   201  LVZ201      0.0000
   1685  S29      -23.1410   30.6210   33.2590 S.3   201  LVZ201      0.0000
   1686  S29      -23.8330   30.7610   33.4370 S.3   201  LVZ201      0.0050
   1687  S29      -23.7640   30.2280   32.9970 S.3   201  LVZ201      0.0000
   1688  S29      -24.7190   29.7550   32.4410 S.3   201  LVZ201      0.2039
   1689  S29      -24.0260   31.0200   33.2820 S.3   201  LVZ201      0.0320
   1690  S29      -23.8130   30.8350   32.8750 S.3   201  LVZ201      0.0000
   1691  S29      -24.3990   31.6440   33.1480 S.3   201  LVZ201      0.0049
   1692  S29      -24.0120   31.3140   33.4670 S.3   201  LVZ201      0.0561
   1693  S29      -23.5100   30.4540   33.0080 S.3   201  LVZ201      0.2340
   1694  S29      -23.6270   31.1690   33.5750 S.3   201  LVZ201      0.0050
   1695  S29      -23.5620   30.8660   32.9250 S.2   201  LVZ201      0.0000
   1696  S29      -24.1240   31.3240   32.9050 S.3   201  LVZ201      0.0024
   1697  S29      -23.7070   32.0700   33.2280 S.3   201  LVZ201      0.1370
   1698  H61      -36.5460   38.1010   36.9930 H     203  SGN203      0.0601
   1699  H61      -35.7590   37.9140   38.1030 H     203  SGN203      0.2563
   1700  H61      -35.5800   38.3430   37.3840 H     203  SGN203      0.0000
   1701  H61      -36.1340   39.0470   36.8380 H     203  SGN203      0.0000
   1702  H61      -35.4160   38.2490   37.9740 H     203  SGN203      0.0194
   1703  H61      -35.5050   38.3660   37.5100 H     203  SGN203      0.0194
   1704  H61      -35.8020   38.2480   36.9270 H     203  SGN203      0.0000
   1705  H61      -34.8850   38.3970   36.6130 H     203  SGN203      0.0265
   1706  H61      -35.2560   39.0560   36.8440 H     203  SGN203      0.0000
   1707  H61      -35.1690   38.6980   35.6680 H     203  SGN203      0.0265
   1708  H61      -35.7300   38.3000   35.6590 H     203  SGN203      0.0000
   1709  H61      -35.7530   38.9190   37.4130 H     203  SGN203      0.0194
   1710  H61      -35.8620   38.9620   36.8710 H     203  SGN203      0.0000
   1711  H61      -35.9250   39.0800   37.2110 H     203  SGN203      0.0000
   1712  H61      -35.5760   39.5300   38.5790 H     203  SGN203      0.0000
   1713  H61      -35.6210   37.7140   36.7420 H     203  SGN203      0.0265
   1714  H61      -35.5850   37.2370   38.1110 H     203  SGN203      0.0000
   1715  H61      -35.3500   38.0380   39.3350 H     203  SGN203      0.0000
   1716  H61      -35.1740   38.3490   39.2020 H     203  SGN203      0.0000
   1717  H1       -26.5190   27.1750   35.7060 H     201  LVZ201      0.0591
   1718  H1       -25.7740   26.8480   35.3690 H     201  LVZ201      0.0194
   1719  H1       -26.3240   27.1680   34.9910 H     201  LVZ201      0.0230
   1720  H1       -26.2110   27.2540   34.8540 H     201  LVZ201      0.0194
   1721  H1       -26.9640   26.4340   36.2890 H     201  LVZ201      0.0000
   1722  H1       -26.4190   26.5250   35.4310 H     201  LVZ201      0.0000
   1723  H1       -26.6430   26.8100   35.3090 H     201  LVZ201      0.0227
   1724  H1       -26.0840   26.3830   35.6630 H     201  LVZ201      0.0000
   1725  H1       -26.6180   27.0550   35.3250 H     201  LVZ201      0.0000
   1726  H1       -26.5770   26.4310   36.0270 H     201  LVZ201      0.0000
   1727  H1       -27.3830   27.3840   34.1000 H     201  LVZ201      0.0230
   1728  H1       -27.1190   26.3640   35.2760 H     201  LVZ201      0.0000
   1729  H1       -26.6500   26.6440   35.5770 H     201  LVZ201      0.0000
   1730  H1       -27.2430   26.7120   35.6570 H     201  LVZ201      0.0000
   1731  H1       -27.3440   27.4490   34.9040 H     201  LVZ201      0.0230
   1732  H1       -25.5910   27.3750   33.8710 H     201  LVZ201      0.0000
   1733  H1       -26.6780   26.4150   35.3520 H     201  LVZ201      0.0227
   1734  H1       -25.9540   28.4160   33.8260 H     201  LVZ201      0.0000
   1735  H1       -28.1660   26.5420   35.2410 H     201  LVZ201      0.0529
   1736  H1       -27.1990   26.5080   35.3420 H     201  LVZ201      0.0000
   1737  O3S      -28.7270   41.1160   34.9400 O.3   203  SGN203     -0.0856
   1738  O3S      -28.4580   40.6550   34.6570 O.2   203  SGN203      0.0000
   1739  O3S      -28.0530   41.1230   34.2680 O.3   203  SGN203      0.0000
   1740  O3S      -28.3410   40.5370   34.5130 O.3   203  SGN203      0.0000
   1741  O3S      -29.8220   41.6520   33.8350 O.3   203  SGN203      0.0000
   1742  O3S      -28.2390   40.9550   34.5640 O.3   203  SGN203     -0.0000
   1743  O3S      -28.0840   41.1330   34.5660 O.2   203  SGN203      0.0000
   1744  O3S      -27.4970   41.3840   34.3260 O.2   203  SGN203      0.0000
   1745  O3S      -27.3640   40.7850   34.4200 O.2   203  SGN203      0.0000
   1746  O3S      -27.8380   41.5240   34.2980 O.3   203  SGN203      0.0000
   1747  O3S      -28.1840   41.3660   34.5020 O.3   203  SGN203      0.0000
   1748  O3S      -28.0960   41.3310   34.6620 O.3   203  SGN203     -0.0000
   1749  O3S      -27.8850   41.0170   34.3200 O.3   203  SGN203      0.0000
   1750  O3S      -28.3510   41.3950   34.4190 O.2   203  SGN203      0.0000
   1751  O3S      -28.3470   41.2460   34.3330 O.3   203  SGN203     -0.0014
   1752  O3S      -28.1090   40.8000   35.1340 O.2   203  SGN203      0.0000
   1753  O3S      -28.6910   41.4260   34.8300 O.3   203  SGN203      0.0000
   1754  O3S      -30.7490   41.6660   34.9370 O.3   203  SGN203      0.0000
   1755  O3S      -28.5120   40.7890   34.5890 O.3   203  SGN203     -0.0184
   1756  O3S      -30.9220   41.7330   34.5790 O.3   203  SGN203      0.0000
   1757  S1       -30.1290   40.9090   34.7020 S.3   203  SGN203      0.2126
   1758  S1       -29.8080   40.2380   34.5660 S.3   203  SGN203      0.0000
   1759  S1       -29.3540   40.6300   34.0420 S.3   203  SGN203      0.0000
   1760  S1       -29.6860   40.2050   34.1910 S.3   203  SGN203      0.0000
   1761  S1       -29.4840   40.2570   33.8320 S.3   203  SGN203      0.0000
   1762  S1       -29.6000   40.6400   34.3690 S.3   203  SGN203      0.0000
   1763  S1       -29.4490   40.7250   34.3570 S.3   203  SGN203      0.0000
   1764  S1       -28.6100   40.5580   34.0660 S.3   203  SGN203      0.1370
   1765  S1       -28.5030   39.9070   34.4330 S.3   203  SGN203      0.0000
   1766  S1       -29.1240   40.8450   34.0810 S.3   203  SGN203      0.0000
   1767  S1       -29.4050   40.6680   34.1990 S.3   203  SGN203      0.0000
   1768  S1       -29.4600   40.9550   34.3790 S.2   203  SGN203      0.0000
   1769  S1       -29.2070   40.5630   34.1870 S.3   203  SGN203      0.0000
   1770  S1       -29.5420   40.6250   34.1120 S.3   203  SGN203      0.0000
   1771  S1       -29.6290   40.6330   34.4370 S.3   203  SGN203      0.0000
   1772  S1       -29.4540   40.2950   34.9950 S.3   203  SGN203      0.0000
   1773  S1       -30.0160   40.8190   34.7330 S.3   203  SGN203      0.0000
   1774  S1       -30.0170   40.4700   34.6660 S.3   203  SGN203      0.0577
   1775  S1       -29.9090   40.3740   34.6750 S.3   203  SGN203      0.0000
   1776  S1       -30.0540   40.6150   34.5300 S.3   203  SGN203      0.0000
   1777  H19      -26.8870   28.7390   37.3070 H     201  LVZ201      0.0927
   1778  H19      -26.5830   28.2890   36.9930 H     201  LVZ201      0.0000
   1779  H19      -26.6340   28.7030   36.5830 H     201  LVZ201      0.0343
   1780  H19      -26.4640   28.3700   36.8250 H     201  LVZ201      0.0000
   1781  H19      -26.6450   28.4990   37.1870 H     201  LVZ201      0.0000
   1782  H19      -26.4750   28.4390   36.9390 H     201  LVZ201      0.0000
   1783  H19      -26.7120   28.5160   36.7040 H     201  LVZ201      0.0232
   1784  H19      -25.9790   28.3830   37.0950 H     201  LVZ201      0.0000
   1785  H19      -26.9020   28.1200   37.3680 H     201  LVZ201      0.0000
   1786  H19      -26.8360   27.9260   37.4960 H     201  LVZ201      0.0000
   1787  H19      -27.3880   27.8810   36.5020 H     201  LVZ201      0.0000
   1788  H19      -27.0090   28.5650   36.8390 H     201  LVZ201      0.0194
   1789  H19      -26.4040   28.4620   37.0590 H     201  LVZ201      0.0000
   1790  H19      -27.0930   28.4940   36.9990 H     201  LVZ201      0.0000
   1791  H19      -27.1300   28.4060   36.8640 H     201  LVZ201      0.0000
   1792  H19      -26.1880   27.7830   36.4810 H     201  LVZ201      0.0000
   1793  H19      -26.5130   28.2700   36.8940 H     201  LVZ201      0.0000
   1794  H19      -26.4190   28.1170   36.7140 H     201  LVZ201      0.0000
   1795  H19      -26.6690   28.3640   36.8540 H     201  LVZ201      0.0000
   1796  H19      -26.6320   27.9440   36.8040 H     201  LVZ201      0.0000
   1797  H        -27.3330   24.8610   34.5240 H     201  LVZ201      0.0000
   1798  H        -28.5990   26.3310   34.8320 H     201  LVZ201      0.0000
   1799  H        -26.7570   24.6400   35.5200 H     201  LVZ201      0.0000
   1800  H        -27.7590   25.7880   36.2970 H     201  LVZ201      0.0000
   1801  H        -28.2860   25.6970   36.1870 H     201  LVZ201      0.0000
   1802  H        -29.4960   25.9980   34.3430 H     201  LVZ201      0.0000
   1803  H        -28.1300   25.4290   34.0220 H     201  LVZ201      0.0000
   1804  H        -29.4770   26.1260   35.2450 H     201  LVZ201      0.0000
   1805  H        -26.6780   24.9290   34.2280 H     201  LVZ201      0.0000
   1806  H        -24.8140   26.5660   35.6490 H     201  LVZ201      0.0000
   1807  H        -29.1800   26.8070   33.8300 H     201  LVZ201      0.0000
   1808  H        -28.8750   26.0380   36.2820 H     201  LVZ201      0.0000
   1809  H        -26.9240   25.6120   36.3510 H     201  LVZ201      0.0000
   1810  H        -26.8210   25.5370   36.3150 H     201  LVZ201      0.0000
   1811  H        -28.7220   25.7340   35.1170 H     201  LVZ201      0.0000
   1812  H        -27.0700   24.6830   34.2930 H     201  LVZ201      0.0000
   1813  H        -27.9720   25.7350   36.2950 H     201  LVZ201      0.0000
   1814  H        -27.7200   25.6380   33.0610 H     201  LVZ201      0.0000
   1815  H        -28.6910   25.8390   35.6990 H     201  LVZ201      0.0000
   1816  H        -27.9280   25.3530   35.2340 H     201  LVZ201      0.0000
   1817  H        -24.9540   25.1700   33.8480 H     201  LVZ201      0.0000
   1818  H        -27.4130   25.3110   33.6350 H     201  LVZ201      0.0000
   1819  H        -25.7690   25.4570   34.6710 H     201  LVZ201      0.0000
   1820  H        -29.5510   26.2510   34.6840 H     201  LVZ201      0.0000
   1821  H        -32.8370   39.0400   38.5700 H     203  SGN203      0.2052
   1822  H        -34.1300   39.6970   37.9340 H     203  SGN203      0.2052
   1823  H        -32.3150   39.5410   38.7420 H     203  SGN203      0.2052
   1824  H        -33.6080   40.3720   39.1230 H     203  SGN203      0.2052
   1825  H        -33.1520   39.4790   38.2560 H     203  SGN203      0.2052
   1826  H        -34.4450   40.1600   38.8660 H     203  SGN203      0.2052
   1827  H        -33.8700   39.7930   39.2010 H     203  SGN203      0.2528
   1828  H        -32.9650   38.8840   40.2900 H     203  SGN203      0.2052
   1829  H        -32.9280   39.8700   40.8270 H     203  SGN203      0.2052
   1830  H        -26.5500   26.8920   33.9000 H     201  LVZ201      0.0230
   1831  H        -28.0480   26.8290   34.1140 H     201  LVZ201      0.0230
   1832  H        -26.7410   27.2360   32.4630 H     201  LVZ201      0.0230
   1833  H        -27.5760   26.4940   33.9390 H     201  LVZ201      0.0230
   1834  H        -25.7260   26.1900   34.2450 H     201  LVZ201      0.0194
   1835  H        -27.1650   27.1990   33.9610 H     201  LVZ201      0.0194
   1836  H        -27.4580   26.7150   32.8820 H     201  LVZ201      0.0265
   1837  H        -27.0880   27.8480   34.1990 H     201  LVZ201      0.0230
   1838  H        -25.4460   27.6950   33.3340 H     201  LVZ201      0.0230
   1839  H        -28.5000   28.0190   33.6370 H     201  LVZ201      0.0260
   1840  H        -27.2420   26.5200   34.7390 H     201  LVZ201      0.0268
   1841  H        -26.6660   28.0700   34.0610 H     201  LVZ201      0.0268
   1842  H        -30.0790   27.5360   32.7060 H     201  LVZ201      0.0194
   1843  H        -28.7320   27.9530   31.7860 H     201  LVZ201      0.0194
   1844  H        -25.7240   28.2000   33.4350 H     201  LVZ201      0.0263
   1845  H        -26.9270   26.9610   34.3300 H     201  LVZ201      0.0194
   1846  H        -27.3900   27.4640   32.9910 H     201  LVZ201      0.0194
   1847  H        -26.3170   27.3110   33.1550 H     201  LVZ201      0.0230
   1848  H        -27.5290   26.7010   34.2570 H     201  LVZ201      0.0230
   1849  H        -26.9620   28.3470   34.4060 H     201  LVZ201      0.0230
   1850  H        -29.7390   28.0330   33.4690 H     201  LVZ201      0.0230
   1851  H        -27.8960   27.5690   34.1240 H     201  LVZ201      0.0230
   1852  H        -27.9560   27.8180   32.1710 H     201  LVZ201      0.0230
   1853  H        -27.3580   28.1800   33.1850 H     201  LVZ201      0.0265
   1854  H        -26.8050   26.7920   34.1660 H     201  LVZ201      0.0265
   1855  H        -28.4130   27.5680   32.6390 H     201  LVZ201      0.0260
   1856  H        -26.8200   28.1480   33.1580 H     201  LVZ201      0.0260
   1857  H        -26.1920   28.1610   34.3970 H     201  LVZ201      0.0263
   1858  H        -25.3820   26.6450   34.4310 H     201  LVZ201      0.0263
   1859  H        -27.4040   27.0440   34.4070 H     201  LVZ201      0.0194
   1860  H        -28.3370   26.3980   33.0790 H     201  LVZ201      0.0194
   1861  H        -28.5920   28.0440   33.6060 H     201  LVZ201      0.0194
   1862  H        -30.9940   36.1400   35.2130 H     202  IDS202      0.2562
   1863  H        -30.4740   36.9640   35.6310 H     202  IDS202      0.2052
   1864  H        -31.7670   36.3210   36.2810 H     202  IDS202      0.2052
   1865  H        -30.5340   38.0990   35.8020 H     202  IDS202      0.2562
   1866  H        -29.8210   37.3740   35.8520 H     202  IDS202      0.2052
   1867  H        -31.1140   36.4630   35.7760 H     202  IDS202      0.2052
   1868  H        -30.0520   37.5950   36.1470 H     202  IDS202      0.2052
   1869  H        -30.5090   37.4940   36.9440 H     202  IDS202      0.2562
   1870  H        -30.5430   37.0420   34.6190 H     202  IDS202      0.2562
   1871  H        -29.9620   37.4540   35.9100 H     202  IDS202      0.2052
   1872  H        -31.2550   37.0980   35.0680 H     202  IDS202      0.2052
   1873  H        -29.8390   37.6880   35.8230 H     202  IDS202      0.2562
   1874  H        -30.6100   36.1250   36.7240 H     202  IDS202      0.2094
   1875  H        -29.8330   37.1370   36.7910 H     202  IDS202      0.2052
   1876  H        -31.1260   36.4930   36.1420 H     202  IDS202      0.2052
   1877  H        -29.8430   29.9610   37.6280 H     201  LVZ201      0.1645
   1878  H        -28.9950   29.3480   38.9910 H     201  LVZ201      0.1981
   1879  H        -29.8780   28.5580   38.7900 H     201  LVZ201      0.1612
   1880  H        -29.9980   29.6740   37.2410 H     201  LVZ201      0.1722
   1881  H        -28.5990   28.7760   37.1260 H     201  LVZ201      0.1722
   1882  H        -28.6850   29.7040   37.2340 H     201  LVZ201      0.1661
   1883  H        -28.6510   28.4660   38.9790 H     201  LVZ201      0.1398
   1884  H        -30.2010   28.3830   38.3760 H     201  LVZ201      0.1398
   1885  H        -29.9450   28.1540   37.3440 H     201  LVZ201      0.1646
   1886  H        -28.3300   28.4590   38.2200 H     201  LVZ201      0.1383
   1887  H        -29.8610   28.9370   38.6680 H     201  LVZ201      0.1383
   1888  H        -30.3150   28.6500   38.6610 H     201  LVZ201      0.1646
   1889  H        -28.2640   27.5060   38.0260 H     201  LVZ201      0.1146
   1890  H        -29.0150   28.9520   38.3680 H     201  LVZ201      0.1146
   1891  H        -28.3630   28.9830   37.2370 H     201  LVZ201      0.1382
   1892  H        -29.8830   28.3100   37.3540 H     201  LVZ201      0.1382
   1893  H        -28.3050   29.4590   37.4200 H     201  LVZ201      0.2112
   1894  H        -28.7880   29.9730   38.6940 H     201  LVZ201      0.1629
   1895  H        -28.8960   37.0170   33.5880 H     202  IDS202      0.0000
   1896  H        -29.1890   36.6230   34.0120 H     202  IDS202      0.0000
   1897  H        -28.6890   36.7400   34.1540 H     202  IDS202      0.0000
   1898  H        -28.0900   36.9030   34.7920 H     202  IDS202      0.0000
   1899  H        -28.2490   37.3020   34.5230 H     202  IDS202      0.0000
   1900  H        -27.8650   36.2840   33.6280 H     202  IDS202      0.0000
   1901  H        -27.9050   36.6350   34.0140 H     202  IDS202      0.0000
   1902  H        -28.0730   37.0170   34.6730 H     202  IDS202      0.0000
   1903  H        -28.4250   37.1580   34.2010 H     202  IDS202      0.0000
   1904  H        -28.3170   37.1960   34.5690 H     202  IDS202      0.0000
   1905  H        -27.9020   36.1460   34.4720 H     202  IDS202      0.0000
   1906  H        -28.4160   36.8840   34.9100 H     202  IDS202      0.0000
   1907  H        -29.0390   36.8240   34.7490 H     202  IDS202      0.0000
   1908  H        -28.4600   36.9220   35.1090 H     202  IDS202      0.0000
   1909  H        -26.3260   28.1470   32.8060 H     201  LVZ201      0.0000
   1910  H        -27.7820   26.6600   32.9450 H     201  LVZ201      0.0000
   1911  H        -27.8970   26.8450   32.8530 H     201  LVZ201      0.0000
   1912  H        -24.9680   28.0190   34.6780 H     201  LVZ201      0.0000
   1913  H        -26.7310   27.2830   32.5860 H     201  LVZ201      0.0000
   1914  H        -26.5070   28.0090   32.5520 H     201  LVZ201      0.0000
   1915  H        -26.8820   27.7330   33.4440 H     201  LVZ201      0.0000
   1916  H        -27.8770   28.6880   32.5000 H     201  LVZ201      0.0000
   1917  H        -25.0310   28.0460   34.1690 H     201  LVZ201      0.0000
   1918  H        -25.1500   28.3410   34.0140 H     201  LVZ201      0.0000
   1919  H        -28.2080   28.6400   33.0380 H     201  LVZ201      0.0000
   1920  H        -26.8070   28.1670   32.2800 H     201  LVZ201      0.0000
   1921  H        -25.0450   27.9530   33.8770 H     201  LVZ201      0.0000
   1922  H        -27.3720   28.1710   32.5890 H     201  LVZ201      0.0000
   1923  H        -33.3470   39.7960   37.6190 H     203  SGN203      0.0000
   1924  H        -33.1730   40.4440   36.7320 H     203  SGN203      0.0000
   1925  H        -33.5850   40.1570   36.9430 H     203  SGN203      0.0000
   1926  H        -33.0980   40.2870   36.8440 H     203  SGN203      0.0000
   1927  H        -33.4960   40.1130   36.7460 H     203  SGN203      0.0000
   1928  H        -32.8470   40.4190   36.6720 H     203  SGN203      0.0000
   1929  H        -33.4020   40.0120   36.3090 H     203  SGN203      0.0000
   1930  H        -33.1190   40.5480   36.6110 H     203  SGN203      0.0000
   1931  H        -33.1270   40.6620   36.5890 H     203  SGN203      0.0000
   1932  H        -33.3840   40.8130   36.8370 H     203  SGN203      0.0000
   1933  H        -33.1030   41.2550   37.4560 H     203  SGN203      0.0000
   1934  H        -33.7510   39.8020   37.5690 H     203  SGN203      0.0000
   1935  H        -33.6410   39.5690   37.1770 H     203  SGN203      0.0000
   1936  H        -32.9530   40.1920   37.9380 H     203  SGN203      0.0000
   1937  H        -27.3600   25.7280   33.4200 H     201  LVZ201      0.0194
   1938  H        -26.4460   25.8270   34.9060 H     201  LVZ201      0.0194
   1939  H        -28.0920   26.4100   34.8530 H     201  LVZ201      0.0194
   1940  H        -28.7790   26.2860   35.6440 H     201  LVZ201      0.1225
   1941  H        -26.7660   25.1410   34.9560 H     201  LVZ201      0.1225
   1942  H        -28.7580   26.4270   35.5000 H     201  LVZ201      0.0230
   1943  H        -27.2910   25.7560   34.8270 H     201  LVZ201      0.0230
   1944  H        -28.8030   24.8970   34.6570 H     201  LVZ201      0.0230
   1945  H        -27.6160   25.7990   35.3200 H     201  LVZ201      0.0230
   1946  H        -27.5550   25.3400   33.6260 H     201  LVZ201      0.0230
   1947  H        -27.7640   27.1020   34.3460 H     201  LVZ201      0.0194
   1948  H        -27.9370   25.3850   34.6220 H     201  LVZ201      0.0194
   1949  H        -29.3540   26.4050   34.5440 H     201  LVZ201      0.0194
   1950  H        -27.4480   26.3370   35.8280 H     201  LVZ201      0.0227
   1951  H        -27.4190   25.0610   34.6350 H     201  LVZ201      0.0227
   1952  H        -28.2230   24.8080   36.1650 H     201  LVZ201      0.0227
   1953  H        -28.4150   26.8050   35.8680 H     201  LVZ201      0.0194
   1954  H        -28.3920   26.2680   34.2050 H     201  LVZ201      0.0194
   1955  H        -27.6790   25.2750   35.4530 H     201  LVZ201      0.0194
   1956  H        -29.0210   26.1480   35.9670 H     201  LVZ201      0.0227
   1957  H        -28.2530   26.4450   34.4710 H     201  LVZ201      0.0227
   1958  H        -28.3300   26.6380   35.3060 H     201  LVZ201      0.0194
   1959  H        -27.9350   26.7490   34.4390 H     201  LVZ201      0.0194
   1960  H        -27.6570   26.8110   34.8420 H     201  LVZ201      0.0529
   1961  H        -29.8140   25.6600   34.2580 H     201  LVZ201      0.0529
   1962  H        -29.2580   26.7200   35.5860 H     201  LVZ201      0.0529
   1963  H        -29.7280   27.0520   35.8250 H     201  LVZ201      0.0227
   1964  H        -28.1450   26.6790   35.1860 H     201  LVZ201      0.0227
   1965  H        -28.8580   25.6540   36.4090 H     201  LVZ201      0.0227
   1966  H        -25.7820   26.0980   35.0860 H     201  LVZ201      0.0194
   1967  H        -29.3930   26.0950   33.8450 H     201  LVZ201      0.0260
   1968  H        -28.2330   27.0130   33.8160 H     201  LVZ201      0.0260
   1969  H        -26.0340   25.4210   35.0490 H     201  LVZ201      0.0194
   1970  H        -26.3030   27.2060   34.1430 H     201  LVZ201      0.0194
   1971  H        -30.1730   25.5960   35.5940 H     201  LVZ201      0.0227
   1972  H        -29.4250   26.6280   34.3680 H     201  LVZ201      0.0227
   1973  H        -24.7140   32.3310   34.8850 H     201  LVZ201      0.0000
   1974  H        -24.7600   32.1740   34.7830 H     201  LVZ201      0.0000
   1975  H        -24.6370   32.1580   34.7010 H     201  LVZ201      0.0000
   1976  H        -24.3850   32.0590   35.0060 H     201  LVZ201      0.0000
   1977  H        -24.6730   32.0100   35.2170 H     201  LVZ201      0.0000
   1978  H        -25.6300   32.7610   34.6040 H     201  LVZ201      0.0000
   1979  H        -25.1740   32.6190   34.9380 H     201  LVZ201      0.0000
   1980  H        -24.7560   31.9380   34.3150 H     201  LVZ201      0.0000
   1981  H        -24.8630   32.4170   34.8420 H     201  LVZ201      0.0000
   1982  H        -24.5710   32.7910   35.1350 H     201  LVZ201      0.0000
   1983  H        -25.1530   33.0950   35.1590 H     201  LVZ201      0.0000
   1984  H        -25.9310   32.0840   33.2150 H     201  LVZ201      0.0000
   1985  H        -27.0160   34.2440   34.4560 H     202  IDS202      0.0000
   1986  H        -27.1330   34.2190   34.1610 H     202  IDS202      0.0000
   1987  H        -26.8420   34.2010   34.8130 H     202  IDS202      0.0000
   1988  H        -26.6290   34.2910   35.2200 H     202  IDS202      0.0000
   1989  H        -26.4650   34.6780   34.9080 H     202  IDS202      0.0000
   1990  H        -26.3580   33.8810   34.3940 H     202  IDS202      0.0000
   1991  H        -26.8240   34.1320   35.1410 H     202  IDS202      0.0000
   1992  H        -26.3140   33.9850   35.2390 H     202  IDS202      0.0000
   1993  H        -26.6150   34.2250   35.9760 H     202  IDS202      0.0000
   1994  H        -26.9800   34.4180   34.7770 H     202  IDS202      0.0000
   1995  H        -26.5440   34.3820   35.5680 H     202  IDS202      0.0000
   1996  H        -26.4420   33.4560   34.6970 H     202  IDS202      0.0000
   1997  H        -26.6690   34.2640   35.3210 H     202  IDS202      0.0000
   1998  H        -26.7200   34.3150   34.7230 H     202  IDS202      0.0000
   1999  H        -27.0250   34.3890   35.0600 H     202  IDS202      0.0000
   2000  H        -26.5650   34.3990   35.2660 H     202  IDS202      0.0000
   2001  H        -31.0740   36.4110   38.5900 H     202  IDS202      0.0998
   2002  H        -30.2640   34.4840   37.1580 H     202  IDS202      0.0194
   2003  H        -31.6910   35.3040   36.5700 H     202  IDS202      0.0194
   2004  H        -31.6910   34.5840   38.1620 H     202  IDS202      0.0194
   2005  H        -31.6910   33.5650   36.7420 H     202  IDS202      0.0194
   2006  H        -31.4800   35.9710   37.1000 H     202  IDS202      0.0271
   2007  H        -30.2460   35.4240   37.7940 H     202  IDS202      0.0271
   2008  H        -32.5520   33.5070   36.7570 H     202  IDS202      0.0556
   2009  H        -31.3860   34.5230   37.5700 H     202  IDS202      0.0556
   2010  H        -32.2110   35.1080   36.1460 H     202  IDS202      0.0556
   2011  H        -32.1990   34.0080   37.6270 H     202  IDS202      0.0304
   2012  H        -31.4110   33.5150   37.2500 H     202  IDS202      0.0297
   2013  H        -31.8920   35.1390   36.6410 H     202  IDS202      0.0265
   2014  H        -30.6590   36.0550   37.4380 H     202  IDS202      0.0265
   2015  H        -30.0860   35.1550   36.2810 H     202  IDS202      0.0268
   2016  H        -29.8580   34.2280   37.4690 H     202  IDS202      0.0268
   2017  H        -29.9920   34.7820   37.8480 H     202  IDS202      0.0236
   2018  H        -31.5150   34.5060   38.6580 H     202  IDS202      0.0236
   2019  H        -31.0480   36.1280   38.2050 H     202  IDS202      0.0236
   2020  H        -31.4500   34.1570   36.0930 H     202  IDS202      0.0304
   2021  H        -31.7780   35.9790   36.5980 H     202  IDS202      0.0634
   2022  H        -31.6990   35.5060   38.3370 H     202  IDS202      0.0268
   2023  H        -30.4710   34.5080   38.3920 H     202  IDS202      0.0268
   2024  H        -31.4560   35.8330   36.7810 H     202  IDS202      0.0932
   2025  H        -31.0040   34.8960   37.8760 H     202  IDS202      0.0932
   2026  H        -30.4610   35.4850   38.4700 H     202  IDS202      0.0194
   2027  H        -31.8880   36.4540   38.7520 H     202  IDS202      0.0194
   2028  H        -31.8880   34.7570   39.1680 H     202  IDS202      0.0194
   2029  H        -31.8880   35.2450   37.4900 H     202  IDS202      0.0194
   2030  H        -30.5550   34.0550   36.5620 H     202  IDS202      0.0255
   2031  H        -29.7650   33.6320   38.0620 H     202  IDS202      0.0255
   2032  H        -29.9120   35.3090   37.5940 H     202  IDS202      0.0255
   2033  H        -31.0990   35.4760   37.1970 H     202  IDS202      0.0255
   2034  H        -30.3380   35.1360   38.7320 H     202  IDS202      0.0255
   2035  H        -31.9290   34.5020   38.3860 H     202  IDS202      0.0255
   2036  H        -30.9310   33.5640   37.1140 H     202  IDS202      0.0623
   2037  H        -29.7100   34.7320   38.4370 H     202  IDS202      0.0194
   2038  H        -31.1370   35.7120   38.1990 H     202  IDS202      0.0194
   2039  H        -31.1370   34.4480   39.4050 H     202  IDS202      0.0194
   2040  H        -31.1370   34.0350   37.7070 H     202  IDS202      0.0194
   2041  H        -29.7590   34.0380   39.0680 H     202  IDS202      0.0556
   2042  H        -30.5020   35.6120   39.2310 H     202  IDS202      0.0556
   2043  H        -29.8530   35.1070   37.6890 H     202  IDS202      0.0556
   2044  H        -34.0650   35.2520   36.7970 H     202  IDS202      0.2563
   2045  H        -32.5010   33.4220   36.8940 H     202  IDS202      0.2563
   2046  H        -32.9770   35.7350   37.7010 H     202  IDS202      0.2563
   2047  H        -32.2910   34.7250   37.2160 H     202  IDS202      0.2052
   2048  H        -33.5930   35.9330   38.9610 H     202  IDS202      0.2532
   2049  H        -27.4090   27.9950   35.6890 H     201  LVZ201      0.0296
   2050  H        -26.3920   29.2620   35.4140 H     201  LVZ201      0.0233
   2051  H        -27.7990   30.1930   35.8690 H     201  LVZ201      0.0233
   2052  H        -27.9610   28.4960   35.4860 H     201  LVZ201      0.0233
   2053  H        -26.1540   28.9050   36.2540 H     201  LVZ201      0.0194
   2054  H        -27.5810   29.8290   35.8480 H     201  LVZ201      0.0194
   2055  H        -27.5810   28.7950   37.2570 H     201  LVZ201      0.0194
   2056  H        -27.5810   28.0920   35.6570 H     201  LVZ201      0.0194
   2057  H        -27.0430   28.7550   37.5110 H     201  LVZ201      0.0298
   2058  H        -27.5540   29.3230   35.3060 H     201  LVZ201      0.0232
   2059  H        -27.1110   27.8490   36.1350 H     201  LVZ201      0.0232
   2060  H        -26.0930   29.2630   36.2620 H     201  LVZ201      0.0232
   2061  H        -28.2710   29.0720   35.6010 H     201  LVZ201      0.0270
   2062  H        -27.2190   30.1370   35.6570 H     201  LVZ201      0.0270
   2063  H        -26.2970   29.7300   36.7570 H     201  LVZ201      0.0232
   2064  H        -26.0500   28.4820   35.5960 H     201  LVZ201      0.0232
   2065  H        -28.1850   28.2970   37.1680 H     201  LVZ201      0.0532
   2066  H        -27.1230   29.7300   37.2880 H     201  LVZ201      0.0532
   2067  H        -26.2300   28.6750   36.8540 H     201  LVZ201      0.0194
   2068  H        -27.6570   29.2540   36.0280 H     201  LVZ201      0.0194
   2069  H        -27.6570   29.1010   37.7690 H     201  LVZ201      0.0194
   2070  H        -27.6570   27.6700   36.7660 H     201  LVZ201      0.0194
   2071  H        -27.3440   27.8560   36.2660 H     201  LVZ201      0.0268
   2072  H        -28.5330   28.3590   35.5070 H     201  LVZ201      0.0268
   2073  H        -27.7880   29.8910   35.3610 H     201  LVZ201      0.0268
   2074  H        -26.4970   29.2360   35.9240 H     201  LVZ201      0.0268
   2075  H        -26.4680   29.9480   36.2780 H     201  LVZ201      0.0232
   2076  H        -26.6970   28.6390   37.4130 H     201  LVZ201      0.0232
   2077  H        -28.0800   29.4970   36.7770 H     201  LVZ201      0.0232
   2078  H        -28.3950   29.5110   37.2240 H     201  LVZ201      0.0304
   2079  H        -28.3880   28.7510   35.7950 H     201  LVZ201      0.0265
   2080  H        -27.8310   30.2330   36.0990 H     201  LVZ201      0.0265
   2081  H        -27.3050   28.4900   34.9180 H     201  LVZ201      0.0235
   2082  H        -27.2020   27.5780   36.4050 H     201  LVZ201      0.0235
   2083  H        -25.7690   28.3170   35.7330 H     201  LVZ201      0.0235
   2084  H        -27.8020   29.7240   36.6380 H     201  LVZ201      0.0194
   2085  H        -27.7760   28.2600   35.6850 H     201  LVZ201      0.0194
   2086  H        -26.3460   29.2570   35.7930 H     201  LVZ201      0.0194
   2087  H        -26.9410   29.3150   37.3590 H     201  LVZ201      0.0306
   2088  H        -27.6230   27.9000   36.0140 H     201  LVZ201      0.0569
   2089  H        -28.9590   38.7580   35.9610 H     203  SGN203      0.0000
   2090  H        -28.7250   39.1610   35.3930 H     203  SGN203      0.0000
   2091  H        -29.2560   38.5610   35.4340 H     203  SGN203      0.0000
   2092  H        -28.8840   38.7560   35.4390 H     203  SGN203      0.0000
   2093  H        -28.8800   39.2290   35.8870 H     203  SGN203      0.0000
   2094  H        -28.8670   39.3310   35.9730 H     203  SGN203      0.0000
   2095  H        -27.9630   39.0570   35.4820 H     203  SGN203      0.0000
   2096  H        -28.0750   39.1770   36.3360 H     203  SGN203      0.0000
   2097  H        -28.7530   39.2840   35.7120 H     203  SGN203      0.0000
   2098  H        -28.8220   39.2880   35.7900 H     203  SGN203      0.0000
   2099  H        -28.6670   38.4160   36.0830 H     203  SGN203      0.0000
   2100  H        -29.0020   39.4460   36.2940 H     203  SGN203      0.0000
   2101  H        -29.3430   38.6320   35.4560 H     203  SGN203      0.0000
   2102  H        -29.0570   38.9550   36.3630 H     203  SGN203      0.0000
   2103  H        -28.9680   39.0020   35.7660 H     203  SGN203      0.0000
   2104  H        -26.5200   27.9610   32.8890 H     201  LVZ201      0.0000
   2105  H        -26.7140   28.2470   32.8270 H     201  LVZ201      0.0000
   2106  H        -25.0010   28.1860   33.5150 H     201  LVZ201      0.0000
   2107  H        -28.2850   27.0700   31.9940 H     201  LVZ201      0.0000
   2108  H        -25.5030   26.5700   33.2500 H     201  LVZ201      0.0000
   2109  H        -25.9580   26.6770   31.7420 H     201  LVZ201      0.0000
   2110  H        -25.8210   26.7180   32.8090 H     201  LVZ201      0.0000
   2111  H        -30.6290   33.3770   35.8940 H     202  IDS202      0.0532
   2112  H        -31.0460   34.7680   34.8510 H     202  IDS202      0.0532
   2113  H        -31.1860   35.6590   35.9100 H     202  IDS202      0.1225
   2114  H        -30.8520   34.3400   36.7660 H     202  IDS202      0.0194
   2115  H        -32.3670   34.1890   35.9080 H     202  IDS202      0.0194
   2116  H        -31.2890   35.5170   35.5500 H     202  IDS202      0.0194
   2117  H        -30.2890   34.3040   36.9760 H     202  IDS202      0.0566
   2118  H        -29.4180   34.8040   35.8750 H     202  IDS202      0.0194
   2119  H        -30.8450   35.2190   36.7950 H     202  IDS202      0.0194
   2120  H        -30.8450   33.8000   35.7740 H     202  IDS202      0.0194
   2121  H        -30.8450   35.3930   35.0560 H     202  IDS202      0.0194
   2122  H        -29.3770   35.6210   35.9540 H     202  IDS202      0.0230
   2123  H        -31.0640   35.6140   35.5010 H     202  IDS202      0.0230
   2124  H        -30.1190   34.1510   35.3700 H     202  IDS202      0.0230
   2125  H        -30.1180   34.2280   34.7670 H     202  IDS202      0.0988
   2126  H        -30.1910   35.5690   35.9460 H     202  IDS202      0.0988
   2127  H        -29.3350   34.8060   36.4880 H     202  IDS202      0.0194
   2128  H        -30.7620   35.8090   36.3800 H     202  IDS202      0.0194
   2129  H        -30.7620   34.3980   37.4110 H     202  IDS202      0.0194
   2130  H        -30.7620   34.2110   35.6730 H     202  IDS202      0.0194
   2131  H        -29.5490   33.9210   35.7440 H     202  IDS202      0.1225
   2132  H        -31.4420   34.2700   36.1390 H     202  IDS202      0.0230
   2133  H        -29.8880   34.3020   35.3390 H     202  IDS202      0.0230
   2134  H        -30.8340   35.7660   35.4700 H     202  IDS202      0.0230
   2135  H        -30.6290   35.2830   34.9490 H     202  IDS202      0.0305
   2136  H        -29.8880   35.6720   36.4050 H     202  IDS202      0.0305
   2137  H        -30.7850   35.6600   37.0030 H     202  IDS202      0.0260
   2138  H        -29.9650   34.4300   37.1670 H     202  IDS202      0.0260
   2139  H        -31.8110   34.4640   35.7120 H     202  IDS202      0.0233
   2140  H        -31.4210   36.1380   36.0270 H     202  IDS202      0.0233
   2141  H        -31.0940   34.9220   37.2380 H     202  IDS202      0.0233
   2142  H        -31.5490   35.0140   36.1440 H     202  IDS202      0.0236
   2143  H        -30.1080   34.5970   37.0400 H     202  IDS202      0.0236
   2144  H        -30.7830   36.2040   37.1690 H     202  IDS202      0.0236
   2145  H        -29.3100   34.7930   35.4950 H     202  IDS202      0.0230
   2146  H        -29.2210   33.4990   36.3330 H     202  IDS202      0.0230
   2147  H        -30.6110   35.4820   35.7640 H     202  IDS202      0.0321
   2148  H        -30.4560   33.6580   37.0660 H     202  IDS202      0.0266
   2149  H        -30.7820   34.7810   35.4290 H     202  IDS202      0.0266
   2150  H        -30.0550   33.9030   37.3890 H     202  IDS202      0.0233
   2151  H        -31.5870   34.5310   36.8320 H     202  IDS202      0.0233
   2152  H        -30.3800   35.6180   37.4750 H     202  IDS202      0.0233
   2153  H        -30.2280   33.6680   37.2800 H     202  IDS202      0.0594
   2154  H        -30.3900   35.4330   37.6780 H     202  IDS202      0.0594
   2155  H        -26.7850   30.3080   33.9140 H     201  LVZ201      0.0000
   2156  H        -27.4020   30.4220   33.6630 H     201  LVZ201      0.0000
   2157  H        -27.1260   30.4000   33.8120 H     201  LVZ201      0.0000
   2158  H        -27.1310   30.2620   34.2540 H     201  LVZ201      0.0000
   2159  H        -26.8250   30.2790   33.8290 H     201  LVZ201      0.0000
   2160  H        -26.8060   30.5870   33.9040 H     201  LVZ201      0.0000
   2161  H        -26.6160   29.9110   33.9210 H     201  LVZ201      0.0000
   2162  H        -27.0980   30.3650   34.4940 H     201  LVZ201      0.0000
   2163  H        -26.6870   29.9330   34.4280 H     201  LVZ201      0.0000
   2164  H        -27.2310   30.5870   34.1500 H     201  LVZ201      0.0000
   2165  H        -27.3390   30.5860   33.7720 H     201  LVZ201      0.0000
   2166  H        -27.8260   30.6200   34.3300 H     201  LVZ201      0.0000
   2167  H        -27.4270   30.6430   34.3030 H     201  LVZ201      0.0000
   2168  H        -26.9440   29.9350   33.8050 H     201  LVZ201      0.0000
   2169  H        -27.1330   30.4710   34.2200 H     201  LVZ201      0.0000
   2170  H        -26.9230   30.8890   34.3850 H     201  LVZ201      0.0000
   2171  H        -27.3480   30.3160   34.3660 H     201  LVZ201      0.0000
   2172  H        -33.6330   39.9580   38.1420 H     203  SGN203      0.0592
   2173  H        -32.5900   38.5250   37.2070 H     203  SGN203      0.0592
   2174  H        -32.2960   39.8690   37.6650 H     203  SGN203      0.0227
   2175  H        -32.9820   39.7260   36.0650 H     203  SGN203      0.0227
   2176  H        -33.4690   38.6200   37.3260 H     203  SGN203      0.0227
   2177  H        -32.5330   39.2760   37.1610 H     203  SGN203      0.0194
   2178  H        -33.9600   39.3780   38.1650 H     203  SGN203      0.0194
   2179  H        -33.9600   38.3560   36.7480 H     203  SGN203      0.0194
   2180  H        -33.9600   40.0940   36.5710 H     203  SGN203      0.0194
   2181  H        -32.6670   38.7310   38.2820 H     203  SGN203      0.0307
   2182  H        -33.8200   38.8560   36.3740 H     203  SGN203      0.0274
   2183  H        -34.4980   39.8280   37.3370 H     203  SGN203      0.0274
   2184  H        -31.5450   39.1130   36.9780 H     203  SGN203      0.0194
   2185  H        -32.9720   39.7660   37.7470 H     203  SGN203      0.0194
   2186  H        -32.9720   38.1210   37.1590 H     203  SGN203      0.0194
   2187  H        -32.9720   39.4520   36.0280 H     203  SGN203      0.0194
   2188  H        -31.9920   40.3010   36.8400 H     203  SGN203      0.0303
   2189  H        -33.7720   38.9640   37.5770 H     203  SGN203      0.0233
   2190  H        -32.0760   39.0530   37.9880 H     203  SGN203      0.0233
   2191  H        -32.5600   38.7850   36.3310 H     203  SGN203      0.0233
   2192  H        -34.2280   39.4400   36.1500 H     203  SGN203      0.0230
   2193  H        -33.9530   38.7110   37.7140 H     203  SGN203      0.0230
   2194  H        -32.6760   38.7270   36.5210 H     203  SGN203      0.0230
   2195  H        -33.8140   38.9430   37.5380 H     203  SGN203      0.0265
   2196  H        -33.7260   40.2450   36.4020 H     203  SGN203      0.0265
   2197  H        -33.4370   40.7570   37.6940 H     203  SGN203      0.0268
   2198  H        -33.6510   40.0380   38.2900 H     203  SGN203      0.0227
   2199  H        -32.7880   39.9510   38.7950 H     203  SGN203      0.0230
   2200  H        -34.2610   40.6700   38.1910 H     203  SGN203      0.0230
   2201  H        -32.7120   41.2760   37.6580 H     203  SGN203      0.0230
   2202  H        -34.1310   38.4480   37.0140 H     203  SGN203      0.0529
   2203  H        -32.4030   37.9930   37.0560 H     203  SGN203      0.0529
   2204  H        -32.5520   39.0840   37.9060 H     203  SGN203      0.0194
   2205  H        -33.9790   40.0280   37.5500 H     203  SGN203      0.0194
   2206  H        -33.9790   38.9210   38.9010 H     203  SGN203      0.0194
   2207  H        -33.9790   38.3030   37.2670 H     203  SGN203      0.0194
   2208  H        -34.4730   38.5770   37.0870 H     203  SGN203      0.0291
   2209  H        -33.6990   40.4160   38.8070 H     203  SGN203      0.0194
   2210  H        -33.6680   39.0790   37.6830 H     203  SGN203      0.0194
   2211  H        -32.1820   39.8880   38.1200 H     203  SGN203      0.0194
   2212  H        -32.0100   39.9320   38.9780 H     203  SGN203      0.0556
   2213  H        -32.7200   39.7820   37.3890 H     203  SGN203      0.0556
   2214  H        -32.8940   38.4870   38.5500 H     203  SGN203      0.0556
   2215  H        -31.7590   37.3230   36.2040 H     203  SGN203      0.1026
   2216  H        -30.6240   38.4040   35.0090 H     203  SGN203      0.0194
   2217  H        -32.0510   39.2460   35.5650 H     203  SGN203      0.0194
   2218  H        -32.0510   37.5020   35.4600 H     203  SGN203      0.0194
   2219  H        -32.0510   38.4650   34.0020 H     203  SGN203      0.0194
   2220  H        -31.1000   38.1090   34.9540 H     203  SGN203      0.0194
   2221  H        -32.5270   37.1270   34.7220 H     203  SGN203      0.0194
   2222  H        -32.5270   38.8010   34.2200 H     203  SGN203      0.0194
   2223  H        -32.5270   38.3990   35.9200 H     203  SGN203      0.0194
   2224  H        -30.7250   37.7950   35.5240 H     203  SGN203      0.0336
   2225  H        -31.7390   37.8660   34.1810 H     203  SGN203      0.0336
   2226  H        -31.3420   37.2690   34.9560 H     203  SGN203      0.0268
   2227  H        -32.5190   38.4770   34.5760 H     203  SGN203      0.0268
   2228  H        -30.9590   38.6880   36.0040 H     203  SGN203      0.0227
   2229  H        -31.4040   37.4100   35.3980 H     203  SGN203      0.0227
   2230  H        -30.1180   38.7560   35.4050 H     203  SGN203      0.0194
   2231  H        -30.7220   37.1690   34.9910 H     203  SGN203      0.0194
   2232  H        -31.8260   38.5170   35.1230 H     203  SGN203      0.0194
   2233  H        -30.1450   38.1350   35.7130 H     203  SGN203      0.0268
   2234  H        -31.7640   38.8690   35.8980 H     203  SGN203      0.0268
   2235  H        -30.5060   38.0850   35.0960 H     203  SGN203      0.0194
   2236  H        -32.1060   37.6050   35.6090 H     203  SGN203      0.0194
   2237  H        -31.7540   39.2890   35.3050 H     203  SGN203      0.0194
   2238  H        -31.6710   38.7320   36.3410 H     203  SGN203      0.0234
   2239  H        -32.6950   38.8680   34.9320 H     203  SGN203      0.0234
   2240  H        -30.9700   39.1020   34.7830 H     203  SGN203      0.0234
   2241  H        -31.7720   39.4770   34.9700 H     203  SGN203      0.0268
   2242  H        -30.9760   38.7520   36.2070 H     203  SGN203      0.0268
   2243  H        -31.6260   39.7040   35.0370 H     203  SGN203      0.0227
   2244  H        -32.7190   38.6110   35.8520 H     203  SGN203      0.0227
   2245  H        -32.3530   38.3800   34.1590 H     203  SGN203      0.0227
   2246  H        -32.3400   38.3130   36.8400 H     203  SGN203      0.0233
   2247  H        -31.1740   38.0740   35.5600 H     203  SGN203      0.0233
   2248  H        -32.6770   38.9020   35.2290 H     203  SGN203      0.0233
   2249  H        -30.3610   37.6500   35.3380 H     203  SGN203      0.0194
   2250  H        -31.7880   37.5280   36.3390 H     203  SGN203      0.0194
   2251  H        -31.7880   36.8440   34.7320 H     203  SGN203      0.0194
   2252  H        -31.7880   38.5780   34.9430 H     203  SGN203      0.0194
   2253  H        -31.9660   39.2200   35.9020 H     203  SGN203      0.0295
   2254  H        -31.4470   37.0070   36.0730 H     203  SGN203      0.0232
   2255  H        -32.9360   37.2990   35.5570 H     203  SGN203      0.0232
   2256  H        -31.9410   37.0070   36.3270 H     203  SGN203      0.0232
   2257  H        -32.9000   38.4540   36.5200 H     203  SGN203      0.0232
   2258  H        -31.1690   38.5170   36.7460 H     203  SGN203      0.0232
   2259  H        -30.6400   38.1030   36.2050 H     203  SGN203      0.0194
   2260  H        -32.0670   38.9510   35.6590 H     203  SGN203      0.0194
   2261  H        -32.0670   38.1520   37.2130 H     203  SGN203      0.0194
   2262  H        -32.0670   37.2060   35.7440 H     203  SGN203      0.0194
   2263  H        -28.4200   25.8080   35.4160 H     201  LVZ201      0.0000
   2264  H        -27.3450   25.2330   34.0840 H     201  LVZ201      0.0000
   2265  H        -28.0580   25.4240   34.5540 H     201  LVZ201      0.0000
   2266  H        -27.4570   25.1030   34.6680 H     201  LVZ201      0.0000
   2267  H        -27.2760   25.5160   33.7750 H     201  LVZ201      0.0000
   2268  H        -29.2310   26.7510   34.1650 H     201  LVZ201      0.0000
   2269  H        -25.5540   25.4500   35.4890 H     201  LVZ201      0.0000
   2270  H        -24.3690   26.1320   34.0010 H     201  LVZ201      0.0000
   2271  H        -27.8700   26.4630   32.7600 H     201  LVZ201      0.0000
   2272  H        -26.8700   32.5470   35.6770 H     201  LVZ201      0.0000
   2273  H        -26.9660   32.3020   36.4570 H     201  LVZ201      0.0000
   2274  H        -26.4650   32.2060   36.2390 H     201  LVZ201      0.0000
   2275  H        -26.5020   32.5020   36.2480 H     201  LVZ201      0.0000
   2276  H        -26.4420   31.9460   36.0320 H     201  LVZ201      0.0000
   2277  H        -26.7260   32.3710   36.7360 H     201  LVZ201      0.0000
   2278  H        -26.3240   31.9430   36.7010 H     201  LVZ201      0.0000
   2279  H        -26.3760   32.1640   36.6640 H     201  LVZ201      0.0000
   2280  H        -27.0080   32.4120   36.1460 H     201  LVZ201      0.0000
   2281  H        -26.4220   32.4870   36.5010 H     201  LVZ201      0.0000
   2282  H        -27.1730   32.5690   36.5250 H     201  LVZ201      0.0000
   2283  H        -26.9390   32.6430   36.7710 H     201  LVZ201      0.0000
   2284  H        -26.7380   32.2280   36.5430 H     201  LVZ201      0.0000
   2285  H        -26.3940   32.4020   36.4710 H     201  LVZ201      0.0000
   2286  H        -26.5800   32.5700   36.8410 H     201  LVZ201      0.0000
   2287  H        -26.0870   32.3670   36.3140 H     201  LVZ201      0.0000
   2288  H        -29.9520   33.6840   35.8430 H     202  IDS202      0.2563
   2289  H        -29.9280   35.0140   35.3710 H     202  IDS202      0.2128
   2290  H        -28.1180   34.5060   36.1770 H     202  IDS202      0.2052
   2291  H        -29.4110   33.9360   36.8920 H     202  IDS202      0.2052
   2292  H        -28.0800   33.5160   35.9500 H     202  IDS202      0.2128
   2293  H        -30.0370   34.8750   36.9050 H     202  IDS202      0.2562
   2294  H        -28.7190   34.9760   36.3900 H     202  IDS202      0.2052
   2295  H        -30.0120   34.8300   35.4870 H     202  IDS202      0.2052
   2296  H        -27.8340   34.6180   36.0230 H     202  IDS202      0.2562
   2297  H        -28.2750   34.8990   37.1280 H     202  IDS202      0.2531
   2298  H        -28.2360   35.1620   37.3730 H     202  IDS202      0.2563
   2299  H        -24.1180   30.8770   33.2760 H     201  LVZ201      0.2052
   2300  H        -25.4110   31.7320   32.9520 H     201  LVZ201      0.2052
   2301  H        -24.2400   31.6010   33.3450 H     201  LVZ201      0.2563
   2302  H        -25.4720   29.9510   33.1000 H     201  LVZ201      0.2531
   2303  H        -26.7250   30.8930   33.2070 H     201  LVZ201      0.2562
   2304  H        -24.6050   31.0210   32.7250 H     201  LVZ201      0.2531
   2305  H        -24.9670   31.8020   32.4650 H     201  LVZ201      0.2563
   2306  H        -23.9100   31.2380   33.3500 H     201  LVZ201      0.2528
   2307  H        -27.2090   29.5600   37.0210 H     201  LVZ201      0.0194
   2308  H        -28.6360   28.8050   37.6900 H     201  LVZ201      0.0194
   2309  H        -28.6360   29.3590   36.0320 H     201  LVZ201      0.0194
   2310  H        -28.6360   30.5170   37.3410 H     201  LVZ201      0.0194
   2311  H        -27.1170   30.0350   36.8550 H     201  LVZ201      0.0194
   2312  H        -28.5440   30.5070   35.9640 H     201  LVZ201      0.0194
   2313  H        -28.5440   30.5710   37.7100 H     201  LVZ201      0.0194
   2314  H        -28.5440   29.0270   36.8920 H     201  LVZ201      0.0194
   2315  H        -29.3100   29.9110   37.6300 H     201  LVZ201      0.0230
   2316  H        -27.7230   30.6300   37.7600 H     201  LVZ201      0.0230
   2317  H        -27.9270   28.9120   38.0070 H     201  LVZ201      0.0230
   2318  H        -28.6000   28.7930   36.6210 H     201  LVZ201      0.0260
   2319  H        -28.5220   30.2990   36.2160 H     201  LVZ201      0.0260
   2320  H        -28.6950   29.7720   36.0950 H     201  LVZ201      0.0268
   2321  H        -27.7490   30.8640   36.8800 H     201  LVZ201      0.0268
   2322  H        -27.4170   30.6720   36.7540 H     201  LVZ201      0.0274
   2323  H        -27.1540   29.2270   36.3290 H     201  LVZ201      0.0274
   2324  H        -29.0840   29.0180   37.4710 H     201  LVZ201      0.0230
   2325  H        -28.6880   30.5600   38.1910 H     201  LVZ201      0.0230
   2326  H        -27.6180   29.1960   38.4060 H     201  LVZ201      0.0230
   2327  H        -27.2250   29.6420   37.5160 H     201  LVZ201      0.0194
   2328  H        -28.6520   29.9240   38.4850 H     201  LVZ201      0.0194
   2329  H        -28.6520   28.6620   37.2760 H     201  LVZ201      0.0194
   2330  H        -28.6520   30.3400   36.7880 H     201  LVZ201      0.0194
   2331  H        -27.2070   29.7170   37.3020 H     201  LVZ201      0.0194
   2332  H        -28.6340   30.3480   36.5150 H     201  LVZ201      0.0194
   2333  H        -28.6340   30.0830   38.2420 H     201  LVZ201      0.0194
   2334  H        -28.6340   28.7200   37.1490 H     201  LVZ201      0.0194
   2335  H        -29.1340   30.4580   36.3940 H     201  LVZ201      0.1225
   2336  H        -28.5440   30.2470   38.3900 H     201  LVZ201      0.0274
   2337  H        -27.7500   31.0100   37.3280 H     201  LVZ201      0.0274
   2338  H        -29.0900   29.0400   37.4350 H     201  LVZ201      0.0230
   2339  H        -29.3390   30.7350   37.0910 H     201  LVZ201      0.0230
   2340  H        -28.1790   30.2520   38.3040 H     201  LVZ201      0.0230
   2341  H        -29.3440   29.8170   37.4980 H     201  LVZ201      0.0230
   2342  H        -28.1020   31.0460   37.5180 H     201  LVZ201      0.0230
   2343  H        -28.0360   29.7190   38.6520 H     201  LVZ201      0.0230
   2344  H        -27.6160   28.0950   37.0400 H     201  LVZ201      0.0230
   2345  H        -28.7850   29.3880   37.1650 H     201  LVZ201      0.0230
   2346  H        -27.0970   29.7010   37.4900 H     201  LVZ201      0.0230
   2347  H        -27.5670   29.0370   37.8510 H     201  LVZ201      0.1225
   2348  H        -27.8400   28.9710   38.0120 H     201  LVZ201      0.0230
   2349  H        -27.5540   30.6390   37.5760 H     201  LVZ201      0.0230
   2350  H        -27.1240   29.3590   36.4660 H     201  LVZ201      0.0230
   2351  H        -27.8710   29.4060   36.4160 H     201  LVZ201      0.0260
   2352  H        -27.1280   29.1660   38.2690 H     201  LVZ201      0.0306
   2353  H        -31.5410   35.5390   34.7080 H     202  IDS202      0.0000
   2354  H        -31.4220   35.9500   34.6460 H     202  IDS202      0.0000
   2355  H        -31.8960   35.6550   34.4290 H     202  IDS202      0.0000
   2356  H        -30.8790   35.9010   34.3540 H     202  IDS202      0.0000
   2357  H        -30.8010   36.1010   34.3390 H     202  IDS202      0.0000
   2358  H        -31.1680   35.8960   35.2650 H     202  IDS202      0.0000
   2359  H        -30.6330   35.6460   34.2970 H     202  IDS202      0.0000
   2360  H        -30.7620   36.0040   34.3170 H     202  IDS202      0.0000
   2361  H        -30.9780   35.9140   35.0210 H     202  IDS202      0.0000
   2362  H        -31.5310   36.2050   34.6560 H     202  IDS202      0.0000
   2363  H        -31.6520   36.1690   35.6410 H     202  IDS202      0.0000
   2364  H        -30.7320   35.0510   34.6100 H     202  IDS202      0.0000
   2365  H        -31.1900   35.7790   35.1030 H     202  IDS202      0.0000
   2366  H        -31.2810   35.0660   35.0910 H     202  IDS202      0.0000
   2367  H        -31.5390   35.5900   35.9080 H     202  IDS202      0.0000
   2368  H        -36.1770   37.5110   35.8610 H     203  SGN203      0.2125
   2369  H        -33.9130   36.1870   36.4040 H     203  SGN203      0.2125
   2370  H        -35.2740   36.6080   36.9300 H     203  SGN203      0.2562
   2371  H        -36.0280   37.7330   34.8950 H     203  SGN203      0.2562
   2372  H        -35.0500   36.3890   35.5150 H     203  SGN203      0.2545
   2373  H        -34.7160   35.9020   36.2800 H     203  SGN203      0.2052
   2374  H        -36.0090   34.9910   36.2000 H     203  SGN203      0.2052
   2375  H        -33.5130   38.4190   36.3970 H     203  SGN203      0.0194
   2376  H        -34.4260   38.2110   37.8720 H     203  SGN203      0.0194
   2377  H        -34.1620   36.8490   36.8090 H     203  SGN203      0.0194
   2378  H        -34.6640   38.6770   36.2060 H     203  SGN203      0.0230
   2379  H        -32.9560   38.9610   35.9750 H     203  SGN203      0.0230
   2380  H        -33.5420   38.3550   37.5060 H     203  SGN203      0.0230
   2381  H        -33.2600   37.8920   36.6020 H     203  SGN203      0.1225
   2382  H        -33.9210   38.8680   37.4030 H     203  SGN203      0.0252
   2383  H        -32.4360   38.0930   36.6190 H     203  SGN203      0.0252
   2384  H        -34.3000   37.5740   37.6610 H     203  SGN203      0.0265
   2385  H        -34.5350   37.3920   36.4480 H     203  SGN203      0.0554
   2386  H        -34.0150   38.5990   35.7510 H     203  SGN203      0.0554
   2387  H        -32.4070   38.6400   35.6910 H     203  SGN203      0.0232
   2388  H        -33.5860   37.3750   35.4410 H     203  SGN203      0.0232
   2389  H        -32.2720   37.1340   36.5670 H     203  SGN203      0.0232
   2390  H        -32.8100   38.0470   35.6670 H     203  SGN203      0.0306
   2391  H        -33.3790   37.4230   37.1970 H     203  SGN203      0.0306
   2392  H        -32.6020   38.9870   37.1250 H     203  SGN203      0.0306
   2393  H        -32.5530   38.7860   36.8640 H     203  SGN203      0.0298
   2394  H        -33.5880   37.6640   35.2190 H     203  SGN203      0.0265
   2395  H        -34.1960   36.9520   36.4320 H     203  SGN203      0.0265
   2396  H        -33.0560   38.8000   36.0450 H     203  SGN203      0.0230
   2397  H        -33.6050   39.0030   37.6910 H     203  SGN203      0.0230
   2398  H        -34.7300   38.5090   36.4500 H     203  SGN203      0.0230
   2399  H        -34.2520   38.7530   35.4470 H     203  SGN203      0.0306
   2400  H        -33.9940   39.6690   36.9130 H     203  SGN203      0.0306
   2401  H        -34.7710   38.1050   36.9850 H     203  SGN203      0.0306
   2402  H        -32.7580   39.1020   37.8020 H     203  SGN203      0.0194
   2403  H        -34.1810   38.0960   37.9360 H     203  SGN203      0.0194
   2404  H        -34.3330   39.8360   37.9870 H     203  SGN203      0.0194
   2405  H        -33.7920   37.8250   35.9620 H     203  SGN203      0.0194
   2406  H        -34.3770   36.7300   37.1910 H     203  SGN203      0.0194
   2407  H        -33.3630   36.1330   35.8990 H     203  SGN203      0.0194
   2408  H        -32.7450   37.7170   37.1340 H     203  SGN203      0.0194
   2409  H        -34.1720   36.9500   37.7900 H     203  SGN203      0.0194
   2410  H        -34.1720   37.5320   36.1420 H     203  SGN203      0.0194
   2411  H        -34.1720   38.6680   37.4700 H     203  SGN203      0.0194
   2412  H        -34.0880   36.9190   37.8910 H     203  SGN203      0.0194
   2413  H        -33.4970   36.8370   36.2490 H     203  SGN203      0.0194
   2414  H        -34.9150   37.7880   36.6200 H     203  SGN203      0.0194
   2415  H        -32.6660   38.7030   38.1330 H     203  SGN203      0.0988
   2416  H        -34.0050   37.9090   37.2540 H     203  SGN203      0.0988
   2417  H        -34.2620   38.3290   38.4420 H     203  SGN203      0.0529
   2418  H        -25.5910   30.0870   35.0320 H     201  LVZ201      0.2052
   2419  H        -26.8840   30.9320   34.6830 H     201  LVZ201      0.2052
   2420  H        -25.4140   29.9940   35.8050 H     201  LVZ201      0.2052
   2421  H        -26.7070   30.2210   36.6910 H     201  LVZ201      0.2052
   2422  H        -25.2960   29.8840   35.5290 H     201  LVZ201      0.2052
   2423  H        -26.5890   29.3630   36.2800 H     201  LVZ201      0.2052
   2424  H        -26.2110   29.1850   35.8860 H     201  LVZ201      0.2530
   2425  H        -25.7180   29.2720   36.4470 H     201  LVZ201      0.2563
   2426  H        -25.2970   29.4800   36.2040 H     201  LVZ201      0.2052
   2427  H        -26.5900   28.9010   35.4960 H     201  LVZ201      0.2052
   2428  H        -27.2820   29.7230   36.1330 H     201  LVZ201      0.2562
   2429  H        -25.3110   29.9820   35.4460 H     201  LVZ201      0.2563
   2430  H        -27.5160   29.2520   35.5620 H     201  LVZ201      0.2562
   2431  H        -25.1270   29.5950   35.2330 H     201  LVZ201      0.2562
   2432  H        -25.4300   29.1430   35.7640 H     201  LVZ201      0.2562
   2433  H        -28.7430   30.0770   35.2190 H     201  LVZ201      0.0000
   2434  H        -29.2840   30.6500   35.6540 H     201  LVZ201      0.0000
   2435  H        -29.1780   30.1790   36.0490 H     201  LVZ201      0.0000
   2436  H        -28.9670   30.1640   35.7920 H     201  LVZ201      0.0000
   2437  H        -28.9580   30.5050   35.5570 H     201  LVZ201      0.0000
   2438  H        -28.9690   30.9830   35.5720 H     201  LVZ201      0.0000
   2439  H        -28.6330   29.9350   35.6900 H     201  LVZ201      0.0000
   2440  H        -29.0370   30.3410   36.2250 H     201  LVZ201      0.0000
   2441  H        -28.7310   30.3370   35.8400 H     201  LVZ201      0.0000
   2442  H        -29.3340   30.5930   35.4440 H     201  LVZ201      0.0000
   2443  H        -29.5210   30.6570   35.8670 H     201  LVZ201      0.0000
   2444  H        -28.7140   29.8200   35.4700 H     201  LVZ201      0.0000
   2445  H        -29.0900   30.3180   36.0720 H     201  LVZ201      0.0000
   2446  H        -28.9430   30.8900   36.3770 H     201  LVZ201      0.0000
   2447  H        -26.8850   30.5680   37.5190 H     201  LVZ201      0.0000
   2448  H        -26.8480   30.2760   37.8550 H     201  LVZ201      0.0000
   2449  H        -27.0960   30.3820   38.1590 H     201  LVZ201      0.0000
   2450  H        -27.0980   30.2220   37.8590 H     201  LVZ201      0.0000
   2451  H        -27.0330   30.4100   37.8220 H     201  LVZ201      0.0000
   2452  H        -26.5100   30.2810   37.8240 H     201  LVZ201      0.0000
   2453  H        -26.7910   29.9360   37.9260 H     201  LVZ201      0.0000
   2454  H        -27.3360   30.4080   37.7390 H     201  LVZ201      0.0000
   2455  H        -27.2950   30.4070   38.0890 H     201  LVZ201      0.0000
   2456  H        -26.4990   29.5670   37.6420 H     201  LVZ201      0.0000
   2457  H        -26.8970   29.9380   38.0840 H     201  LVZ201      0.0000
   2458  H        -26.6360   30.1840   37.9780 H     201  LVZ201      0.0000
   2459  H        -32.6020   39.1250   38.3390 H     203  SGN203      0.0194
   2460  H        -32.5380   39.8040   36.9860 H     203  SGN203      0.0194
   2461  H        -31.4020   39.1650   36.2110 H     203  SGN203      0.0265
   2462  H        -32.1540   40.6200   36.6630 H     203  SGN203      0.0265
   2463  H        -31.8320   38.7820   36.2850 H     203  SGN203      0.0232
   2464  H        -31.3660   40.2560   37.0990 H     203  SGN203      0.0232
   2465  H        -33.0560   39.8960   36.8440 H     203  SGN203      0.0232
   2466  H        -30.8590   39.2590   36.5580 H     203  SGN203      0.0230
   2467  H        -31.6540   39.4530   38.1020 H     203  SGN203      0.0230
   2468  H        -31.5660   40.7980   36.9900 H     203  SGN203      0.0230
   2469  H        -31.2330   38.9690   37.9950 H     203  SGN203      0.0303
   2470  H        -33.0570   40.0140   37.6350 H     203  SGN203      0.0268
   2471  H        -31.8660   40.9340   37.2730 H     203  SGN203      0.0268
   2472  H        -30.0670   39.5170   36.9400 H     203  SGN203      0.0232
   2473  H        -31.4940   38.6120   37.3860 H     203  SGN203      0.0232
   2474  H        -31.4810   40.3530   37.5370 H     203  SGN203      0.0232
   2475  H        -30.8190   38.9880   37.6290 H     203  SGN203      0.0230
   2476  H        -31.5460   40.5100   38.0870 H     203  SGN203      0.0230
   2477  H        -30.6200   40.3930   36.6100 H     203  SGN203      0.0230
   2478  H        -30.2610   39.6710   37.0670 H     203  SGN203      0.0194
   2479  H        -31.6880   39.0620   36.2620 H     203  SGN203      0.0194
   2480  H        -31.6880   40.6720   36.9420 H     203  SGN203      0.0194
   2481  H        -31.6880   39.2790   37.9960 H     203  SGN203      0.0194
   2482  H        -32.3590   38.6050   37.0200 H     203  SGN203      0.0263
   2483  H        -32.3920   39.6370   35.8890 H     203  SGN203      0.0263
   2484  H        -30.7300   40.0720   37.2100 H     203  SGN203      0.0194
   2485  H        -32.1570   39.9230   38.2080 H     203  SGN203      0.0194
   2486  H        -32.1570   39.2820   36.5820 H     203  SGN203      0.0194
   2487  H        -32.1570   41.0110   36.8400 H     203  SGN203      0.0194
   2488  H        -30.7260   40.0660   37.2020 H     203  SGN203      0.0194
   2489  H        -32.1530   39.7250   36.2520 H     203  SGN203      0.0194
   2490  H        -32.1530   41.0590   37.3820 H     203  SGN203      0.0194
   2491  H        -32.1530   39.4140   37.9720 H     203  SGN203      0.0194
   2492  H        -30.9770   40.0880   37.1540 H     203  SGN203      0.0194
   2493  H        -32.4040   40.7590   37.9080 H     203  SGN203      0.0194
   2494  H        -32.4040   39.1000   37.3580 H     203  SGN203      0.0194
   2495  H        -32.4040   40.4050   36.1960 H     203  SGN203      0.0194
   2496  H        -30.6640   40.3550   37.8030 H     203  SGN203      0.0521
   2497  H        -32.1330   39.7440   37.0800 H     203  SGN203      0.0521
   2498  H        -32.1760   40.4680   38.6700 H     203  SGN203      0.0521
   2499  H        -31.8020   37.6740   37.1920 H     203  SGN203      0.0194
   2500  H        -31.4820   39.3850   37.0410 H     203  SGN203      0.0194
   2501  H        -32.8470   38.8310   37.9810 H     203  SGN203      0.0194
   2502  H        -33.0020   39.4310   38.4760 H     203  SGN203      0.0232
   2503  H        -32.5970   40.3450   37.0430 H     203  SGN203      0.0232
   2504  H        -31.3770   40.0350   38.2550 H     203  SGN203      0.0232
   2505  H        -32.2790   38.2340   37.9070 H     203  SGN203      0.0298
   2506  H        -30.9200   40.1690   37.3700 H     203  SGN203      0.0899
   2507  H        -32.4170   39.3700   37.3700 H     203  SGN203      0.0899
   2508  H        -30.8500   40.8690   38.1890 H     203  SGN203      0.0194
   2509  H        -32.3760   40.0990   38.5520 H     203  SGN203      0.0194
   2510  H        -31.8260   40.2130   36.8970 H     203  SGN203      0.0194
   2511  H        -26.6960   25.9180   34.7550 H     201  LVZ201      0.0230
   2512  H        -27.6350   27.2540   34.6440 H     201  LVZ201      0.0230
   2513  H        -26.3140   27.0950   34.7440 H     201  LVZ201      0.0194
   2514  H        -27.7410   27.3190   35.7280 H     201  LVZ201      0.0194
   2515  H        -27.7410   26.1310   34.4460 H     201  LVZ201      0.0194
   2516  H        -27.7410   27.8350   34.0590 H     201  LVZ201      0.0194
   2517  H        -26.6160   26.3380   35.2160 H     201  LVZ201      0.0230
   2518  H        -27.0110   26.5800   33.7990 H     201  LVZ201      0.0230
   2519  H        -26.2450   26.8500   35.3450 H     201  LVZ201      0.0194
   2520  H        -27.6720   26.5370   34.3860 H     201  LVZ201      0.0194
   2521  H        -27.6720   27.8370   35.5530 H     201  LVZ201      0.0194
   2522  H        -27.6720   26.1760   36.0960 H     201  LVZ201      0.0194
   2523  H        -27.0270   26.0000   35.3610 H     201  LVZ201      0.0254
   2524  H        -26.2130   27.0880   34.2630 H     201  LVZ201      0.0254
   2525  H        -27.8320   26.5370   33.9060 H     201  LVZ201      0.0254
   2526  H        -26.6760   27.8690   35.1660 H     201  LVZ201      0.0230
   2527  H        -26.9310   26.3110   34.9060 H     201  LVZ201      0.0230
   2528  H        -27.3890   26.4100   34.1250 H     201  LVZ201      0.0227
   2529  H        -28.2150   26.4070   35.3690 H     201  LVZ201      0.0263
   2530  H        -27.4200   27.8440   35.7570 H     201  LVZ201      0.0263
   2531  H        -27.0090   27.0300   36.3350 H     201  LVZ201      0.0227
   2532  H        -28.1300   26.0700   35.3980 H     201  LVZ201      0.0227
   2533  H        -27.7110   27.6840   34.8740 H     201  LVZ201      0.0227
   2534  H        -27.8200   28.2040   33.8990 H     201  LVZ201      0.0230
   2535  H        -27.8970   26.5620   34.4930 H     201  LVZ201      0.0230
   2536  H        -29.1830   27.6860   34.8630 H     201  LVZ201      0.0230
   2537  H        -27.5930   26.0650   34.2860 H     201  LVZ201      0.0287
   2538  H        -27.5520   27.5000   33.6200 H     201  LVZ201      0.0287
   2539  H        -26.9440   27.2240   35.9110 H     201  LVZ201      0.0590
   2540  H        -27.7180   26.6390   35.8400 H     201  LVZ201      0.0231
   2541  H        -28.9030   26.9900   34.6050 H     201  LVZ201      0.0231
   2542  H        -27.8350   28.2500   35.1740 H     201  LVZ201      0.0231
   2543  H        -28.1250   28.3290   34.3630 H     201  LVZ201      0.0529
   2544  H        -29.3020   27.5990   35.4940 H     201  LVZ201      0.0529
   2545  H        -26.1380   26.1730   33.3500 H     201  LVZ201      0.0265
   2546  H        -27.5970   26.5780   33.8920 H     201  LVZ201      0.0265
   2547  H        -26.2430   26.9810   34.6710 H     201  LVZ201      0.0194
   2548  H        -27.6700   26.5130   33.7780 H     201  LVZ201      0.0194
   2549  H        -27.6700   27.9890   34.7120 H     201  LVZ201      0.0194
   2550  H        -27.6700   26.4410   35.5230 H     201  LVZ201      0.0194
   2551  H        -27.4210   26.9560   34.4410 H     201  LVZ201      0.0230
   2552  H        -27.0960   28.6090   33.9760 H     201  LVZ201      0.0230
   2553  H        -25.9010   27.7030   34.8710 H     201  LVZ201      0.0230
   2554  H        -28.5440   26.8180   34.0510 H     201  LVZ201      0.0263
   2555  H        -28.4020   28.2590   34.4850 H     201  LVZ201      0.0263
   2556  H        -27.2360   27.0380   34.3850 H     201  LVZ201      0.0529
   2557  H        -28.4090   32.9360   34.0840 H     202  IDS202      0.0307
   2558  H        -28.7150   34.5070   33.6890 H     202  IDS202      0.0307
   2559  H        -27.7550   34.1430   34.3450 H     202  IDS202      0.0194
   2560  H        -29.1820   33.6610   33.4590 H     202  IDS202      0.0194
   2561  H        -29.1820   35.1510   34.3700 H     202  IDS202      0.0194
   2562  H        -29.1820   33.6170   35.2060 H     202  IDS202      0.0194
   2563  H        -29.0820   33.0040   35.5850 H     202  IDS202      0.0273
   2564  H        -30.0870   33.6800   34.4420 H     202  IDS202      0.0273
   2565  H        -29.1720   33.1430   35.0720 H     202  IDS202      0.0230
   2566  H        -27.7460   33.6470   34.1970 H     202  IDS202      0.0230
   2567  H        -29.0890   34.7480   34.3860 H     202  IDS202      0.0230
   2568  H        -27.4840   34.4800   34.3580 H     202  IDS202      0.0263
   2569  H        -28.3710   33.1000   35.0670 H     202  IDS202      0.0263
   2570  H        -28.7810   35.1030   34.4130 H     202  IDS202      0.0230
   2571  H        -27.5350   34.1610   34.0950 H     202  IDS202      0.0230
   2572  H        -26.9760   33.6690   34.4470 H     202  IDS202      0.0194
   2573  H        -28.4030   33.9350   33.4740 H     202  IDS202      0.0194
   2574  H        -28.4030   34.3790   35.1640 H     202  IDS202      0.0194
   2575  H        -28.4030   32.6930   34.7030 H     202  IDS202      0.0194
   2576  H        -29.2340   33.5520   34.6310 H     202  IDS202      0.1225
   2577  H        -27.5850   34.3590   35.8570 H     202  IDS202      0.0532
   2578  H        -27.5350   33.0050   34.6920 H     202  IDS202      0.0532
   2579  H        -27.3830   33.5300   35.8010 H     202  IDS202      0.0988
   2580  H        -28.6670   35.3590   34.6510 H     202  IDS202      0.0230
   2581  H        -29.5150   34.0190   35.3860 H     202  IDS202      0.0230
   2582  H        -28.7720   33.8280   33.8160 H     202  IDS202      0.0230
   2583  H        -27.5670   34.5970   36.1710 H     202  IDS202      0.0270
   2584  H        -29.5400   35.2280   34.7590 H     202  IDS202      0.0357
   2585  H        -27.0810   33.4400   34.6530 H     202  IDS202      0.0194
   2586  H        -28.5080   34.3090   35.1660 H     202  IDS202      0.0194
   2587  H        -28.5080   32.5620   35.1490 H     202  IDS202      0.0194
   2588  H        -28.5080   33.4490   33.6440 H     202  IDS202      0.0194
   2589  H        -27.7170   33.4210   35.7120 H     202  IDS202      0.0260
   2590  H        -28.9520   34.3900   36.0520 H     202  IDS202      0.0260
   2591  H        -28.7010   34.8350   35.3700 H     202  IDS202      0.0566
   2592  H        -28.1890   33.4050   34.8030 H     202  IDS202      0.0357
   2593  H        -27.5150   34.5320   35.9770 H     202  IDS202      0.1225
   2594  H        -27.5240   35.0040   32.3460 H     202  IDS202      0.2052
   2595  H        -28.8170   35.9040   32.5110 H     202  IDS202      0.2052
   2596  H        -27.8000   34.3300   32.4420 H     202  IDS202      0.2562
   2597  H        -27.2390   34.9370   32.5490 H     202  IDS202      0.2052
   2598  H        -28.5320   34.2040   33.0950 H     202  IDS202      0.2052
   2599  H        -26.9990   36.0320   33.6330 H     202  IDS202      0.2562
   2600  H        -26.5560   34.5270   32.3560 H     202  IDS202      0.2052
   2601  H        -27.8490   35.3990   32.0810 H     202  IDS202      0.2052
   2602  H        -25.9870   35.5280   34.0050 H     202  IDS202      0.2052
   2603  H        -27.2800   36.3460   33.5950 H     202  IDS202      0.2052
   2604  H        -27.2570   35.2400   32.5220 H     202  IDS202      0.2052
   2605  H        -28.5500   34.3310   32.4200 H     202  IDS202      0.2052
   2606  H        -27.5240   33.7850   32.2550 H     202  IDS202      0.2562
   2607  H        -27.3930   35.0820   32.6710 H     202  IDS202      0.2052
   2608  H        -28.6860   35.7410   33.3050 H     202  IDS202      0.2052
   2609  H        -28.9460   27.8990   36.9600 H     201  LVZ201      0.0000
   2610  H        -29.1000   28.5540   37.2580 H     201  LVZ201      0.0000
   2611  H        -28.7530   28.0190   37.6080 H     201  LVZ201      0.0000
   2612  H        -28.9700   28.1370   37.6410 H     201  LVZ201      0.0000
   2613  H        -29.0080   28.1910   36.9140 H     201  LVZ201      0.0000
   2614  H        -29.2250   28.7610   37.0600 H     201  LVZ201      0.0000
   2615  H        -29.1530   28.1570   37.3730 H     201  LVZ201      0.0000
   2616  H        -29.4270   28.4440   37.6860 H     201  LVZ201      0.0000
   2617  H        -29.1840   28.2010   37.1660 H     201  LVZ201      0.0000
   2618  H        -29.2140   28.3600   37.5220 H     201  LVZ201      0.0000
   2619  H        -28.4530   27.4740   37.1430 H     201  LVZ201      0.0000
   2620  H        -28.5870   27.9120   37.1740 H     201  LVZ201      0.0000
   2621  H        -28.8290   28.2390   37.1810 H     201  LVZ201      0.0000
   2622  H        -29.9010   33.2400   34.2000 H     201  LVZ201      0.2563
   2623  H        -28.9510   32.1740   33.8550 H     201  LVZ201      0.2563
   2624  H        -28.6950   32.2910   33.5040 H     201  LVZ201      0.2563
   2625  H        -29.1780   32.6940   36.1410 H     201  LVZ201      0.2563
   2626  H        -28.3600   32.4310   36.1040 H     201  LVZ201      0.2563
   2627  H        -30.0520   33.5360   34.9550 H     201  LVZ201      0.2562
   2628  H        -27.7510   32.0740   34.0470 H     201  LVZ201      0.2563
   2629  H        -28.0330   32.1430   34.8220 H     201  LVZ201      0.2562
   2630  H        -30.5460   36.5100   34.7450 H     202  IDS202      0.0263
   2631  H        -31.1440   34.6590   34.5480 H     202  IDS202      0.0263
   2632  H        -31.1220   35.0500   35.0950 H     202  IDS202      0.0263
   2633  H        -31.3180   36.3010   33.9370 H     202  IDS202      0.0263
   2634  H        -30.8180   34.7700   35.0260 H     202  IDS202      0.0271
   2635  H        -31.9390   35.9570   34.8330 H     202  IDS202      0.0271
   2636  H        -30.9300   36.7970   34.2810 H     202  IDS202      0.0287
   2637  H        -29.8260   35.6840   34.3760 H     202  IDS202      0.0287
   2638  H        -30.4390   37.2790   34.8690 H     202  IDS202      0.0263
   2639  H        -30.2220   36.0470   36.0070 H     202  IDS202      0.0263
   2640  H        -30.2750   36.3400   36.3510 H     202  IDS202      0.0268
   2641  H        -31.0230   35.0970   36.0310 H     202  IDS202      0.0268
   2642  H        -31.2410   35.4890   34.7540 H     202  IDS202      0.1225
   2643  H        -30.1370   36.9600   34.9040 H     202  IDS202      0.0230
   2644  H        -31.7710   36.6940   35.4620 H     202  IDS202      0.0230
   2645  H        -31.0760   35.6360   34.2580 H     202  IDS202      0.0230
   2646  H        -29.8570   35.4600   35.6770 H     202  IDS202      0.0557
   2647  H        -31.5900   36.5620   35.2770 H     202  IDS202      0.0557
   2648  H        -30.8700   36.0790   36.1940 H     202  IDS202      0.0230
   2649  H        -32.2510   36.0430   35.1240 H     202  IDS202      0.0230
   2650  H        -31.1040   37.3570   35.0260 H     202  IDS202      0.0230
   2651  H        -31.9400   36.2620   36.8610 H     202  IDS202      0.0595
   2652  H        -31.3780   36.4180   34.9730 H     202  IDS202      0.0595
   2653  H        -30.0520   34.3400   34.9020 H     202  IDS202      0.0271
   2654  H        -30.9840   35.5010   35.8920 H     202  IDS202      0.0271
   2655  H        -30.0540   34.9260   35.1710 H     202  IDS202      0.0271
   2656  H        -31.5450   34.8650   35.9460 H     202  IDS202      0.0271
   2657  H        -30.3420   36.7350   36.7000 H     202  IDS202      0.0274
   2658  H        -29.9210   35.2880   36.6410 H     202  IDS202      0.0274
   2659  H        -30.7160   39.3650   36.7210 H     203  SGN203      0.1382
   2660  H        -29.9800   40.6490   35.9570 H     203  SGN203      0.1382
   2661  H        -30.3330   38.4770   35.4380 H     203  SGN203      0.1613
   2662  H        -28.9440   39.3420   35.7020 H     203  SGN203      0.1645
   2663  H        -30.4740   40.9630   35.8870 H     203  SGN203      0.1919
   2664  H        -28.9900   40.1760   35.7900 H     203  SGN203      0.1146
   2665  H        -30.3500   39.7570   36.6560 H     203  SGN203      0.1146
   2666  H        -30.3500   39.6360   34.9950 H     203  SGN203      0.1146
   2667  H        -28.9760   39.9470   34.5590 H     203  SGN203      0.2134
   2668  H        -28.9150   40.1670   35.7330 H     203  SGN203      0.1146
   2669  H        -30.2750   40.8460   35.0520 H     203  SGN203      0.1146
   2670  H        -30.2750   40.4180   36.6610 H     203  SGN203      0.1146
   2671  H        -30.7650   40.7450   36.2340 H     203  SGN203      0.2134
   2672  H        -29.4460   41.1640   35.8850 H     203  SGN203      0.1398
   2673  H        -29.1720   39.5990   36.3840 H     203  SGN203      0.1398
   2674  H        -29.9200   40.0420   36.9400 H     203  SGN203      0.1146
   2675  H        -29.7510   38.3900   36.8030 H     203  SGN203      0.1146
   2676  H        -30.3510   40.0600   37.2560 H     203  SGN203      0.1438
   2677  H        -30.9730   40.1890   36.6870 H     203  SGN203      0.1657
   2678  H        -29.1030   39.9700   36.4620 H     203  SGN203      0.1632
   2679  H        -26.6120   27.9640   35.1990 H     201  LVZ201      0.2052
   2680  H        -27.9050   27.4350   34.4530 H     201  LVZ201      0.2052
   2681  H        -27.5050   27.9220   34.3240 H     201  LVZ201      0.2563
   2682  H        -26.5280   27.8280   35.7240 H     201  LVZ201      0.2052
   2683  H        -27.8210   28.1760   34.8780 H     201  LVZ201      0.2052
   2684  H        -27.2870   27.3860   36.1110 H     201  LVZ201      0.2563
   2685  H        -27.6180   28.9190   36.3720 H     201  LVZ201      0.2563
   2686  H        -27.8410   27.7080   33.9550 H     201  LVZ201      0.2098
   2687  H        -27.7140   28.8930   34.4230 H     201  LVZ201      0.2563
   2688  H        -31.2850   37.9550   34.3640 H     203  SGN203      0.0000
   2689  H        -30.8410   38.4480   33.9450 H     203  SGN203      0.0000
   2690  H        -31.3120   38.1420   33.8910 H     203  SGN203      0.0000
   2691  H        -30.9620   38.0560   34.1310 H     203  SGN203      0.0000
   2692  H        -30.9910   38.3130   34.1900 H     203  SGN203      0.0000
   2693  H        -30.7570   38.6440   34.1690 H     203  SGN203      0.0000
   2694  H        -29.9480   38.3960   33.7860 H     203  SGN203      0.0000
   2695  H        -30.3770   38.3400   33.8420 H     203  SGN203      0.0000
   2696  H        -30.5340   38.3150   33.9820 H     203  SGN203      0.0000
   2697  H        -30.8510   38.6680   34.2370 H     203  SGN203      0.0000
   2698  H        -30.4810   38.3090   34.2560 H     203  SGN203      0.0000
   2699  H        -30.9810   38.6870   34.0740 H     203  SGN203      0.0000
   2700  H        -31.1690   37.7390   34.4480 H     203  SGN203      0.0000
   2701  H        -30.5390   33.5310   35.2610 H     202  IDS202      0.0000
   2702  H        -30.4280   34.0400   35.5420 H     202  IDS202      0.0000
   2703  H        -31.0270   33.6050   35.2580 H     202  IDS202      0.0000
   2704  H        -30.4380   33.8080   35.5350 H     202  IDS202      0.0000
   2705  H        -30.1850   33.9630   35.2590 H     202  IDS202      0.0000
   2706  H        -30.0020   34.1050   35.5020 H     202  IDS202      0.0000
   2707  H        -29.8600   33.6730   35.3500 H     202  IDS202      0.0000
   2708  H        -30.2980   33.8980   36.1750 H     202  IDS202      0.0000
   2709  H        -29.9320   33.7400   35.2940 H     202  IDS202      0.0000
   2710  H        -30.2820   34.0090   35.3620 H     202  IDS202      0.0000
   2711  H        -30.8780   34.2090   35.7400 H     202  IDS202      0.0000
   2712  H        -29.7590   33.2150   35.7460 H     202  IDS202      0.0000
   2713  H        -30.2090   33.9300   36.0080 H     202  IDS202      0.0000
   2714  H        -29.9550   33.4400   35.8420 H     202  IDS202      0.0000
   2715  H        -30.3750   33.7990   36.5570 H     202  IDS202      0.0000
   2716  H        -29.8880   33.7350   36.6750 H     202  IDS202      0.0000
   2717  H        -30.8470   40.8040   37.5520 H     203  SGN203      0.2052
   2718  H        -32.1400   40.3510   36.7580 H     203  SGN203      0.2052
   2719  H        -31.6860   42.0500   37.7710 H     203  SGN203      0.2052
   2720  H        -30.2270   41.4070   38.1970 H     203  SGN203      0.2562
   2721  H        -30.1620   41.0380   37.4840 H     203  SGN203      0.2052
   2722  H        -31.4550   41.8970   37.7990 H     203  SGN203      0.2052
   2723  H        -31.8040   42.3000   37.0290 H     203  SGN203      0.2528
   2724  H        -31.9230   42.3450   37.3890 H     203  SGN203      0.2528
   2725  H        -30.4180   41.8960   37.7620 H     203  SGN203      0.2052
   2726  H        -31.7110   42.5890   38.3590 H     203  SGN203      0.2052
   2727  H        -32.0060   41.5360   38.8460 H     203  SGN203      0.2532
   2728  H        -30.0190   35.5000   33.4400 H     202  IDS202      0.0230
   2729  H        -28.9240   34.7800   32.4670 H     202  IDS202      0.0230
   2730  H        -29.9920   35.5340   33.9050 H     202  IDS202      0.0194
   2731  H        -29.1770   35.3090   32.3760 H     202  IDS202      0.0194
   2732  H        -28.9050   34.1840   33.6850 H     202  IDS202      0.0194
   2733  H        -29.7860   33.5110   33.8300 H     202  IDS202      0.0230
   2734  H        -30.0080   34.7680   32.6360 H     202  IDS202      0.0230
   2735  H        -30.1430   35.1440   34.3370 H     202  IDS202      0.0230
   2736  H        -28.3790   34.2110   34.1880 H     202  IDS202      0.0263
   2737  H        -27.7630   35.3810   34.1230 H     202  IDS202      0.1029
   2738  H        -29.4920   35.6930   34.2500 H     202  IDS202      0.0556
   2739  H        -27.7640   35.7910   34.0090 H     202  IDS202      0.0556
   2740  H        -28.5620   34.2370   33.9890 H     202  IDS202      0.0556
   2741  H        -28.7300   34.8950   32.3460 H     202  IDS202      0.0194
   2742  H        -27.6620   34.0990   33.4770 H     202  IDS202      0.0194
   2743  H        -29.1730   34.7780   34.0330 H     202  IDS202      0.0194
   2744  H        -29.2190   33.7480   33.1720 H     202  IDS202      0.0313
   2745  H        -28.0210   34.2100   34.6140 H     202  IDS202      0.0194
   2746  H        -28.6870   35.5920   33.7770 H     202  IDS202      0.0194
   2747  H        -27.5390   34.5510   32.9690 H     202  IDS202      0.0194
   2748  H        -27.6750   34.2250   33.9550 H     202  IDS202      0.0532
   2749  H        -28.0140   35.6200   35.0200 H     202  IDS202      0.0532
   2750  H        -29.8890   35.2380   32.6570 H     202  IDS202      0.0268
   2751  H        -28.5960   35.8590   33.2890 H     202  IDS202      0.0268
   2752  H        -28.7640   34.3340   33.3250 H     202  IDS202      0.0569
   2753  H        -30.3900   34.8280   34.4770 H     202  IDS202      0.0306
   2754  H        -30.7290   35.1240   34.6300 H     202  IDS202      0.0274
   2755  H        -29.4540   34.7940   35.5260 H     202  IDS202      0.0274
   2756  H        -28.2430   34.2700   32.5240 H     202  IDS202      0.0194
   2757  H        -28.5860   33.2430   33.8950 H     202  IDS202      0.0194
   2758  H        -28.2430   34.9390   34.1380 H     202  IDS202      0.0194
   2759  H        -28.3300   35.7250   34.1280 H     202  IDS202      0.0380
   2760  H        -28.1220   34.7460   33.6750 H     202  IDS202      0.0265
   2761  H        -29.0580   33.6460   34.3000 H     202  IDS202      0.0265
   2762  H        -28.8520   34.8400   35.4030 H     202  IDS202      0.0313
   2763  H        -29.1580   35.1930   38.2580 H     202  IDS202      0.2563
   2764  H        -30.5490   34.8380   37.1750 H     202  IDS202      0.2563
   2765  H        -31.5290   34.6100   37.6640 H     202  IDS202      0.2563
   2766  H        -29.7060   35.2290   39.3680 H     202  IDS202      0.2052
   2767  H        -30.9990   34.3950   38.9930 H     202  IDS202      0.2052
   2768  H        -30.6400   34.4880   38.0320 H     202  IDS202      0.2563
   2769  H        -34.7150   36.7610   37.8010 H     203  SGN203      0.0230
   2770  H        -36.1540   37.7510   37.7790 H     203  SGN203      0.0230
   2771  H        -34.6810   38.3360   37.0440 H     203  SGN203      0.0230
   2772  H        -34.6020   38.3340   35.5400 H     203  SGN203      0.0529
   2773  H        -34.8270   38.1860   37.3070 H     203  SGN203      0.0529
   2774  H        -36.0830   38.2870   35.3660 H     203  SGN203      0.0529
   2775  H        -33.9400   37.8380   37.0490 H     203  SGN203      0.0194
   2776  H        -35.3670   36.9170   36.6380 H     203  SGN203      0.0194
   2777  H        -35.3670   38.6550   36.4570 H     203  SGN203      0.0194
   2778  H        -35.3670   37.9420   38.0520 H     203  SGN203      0.0194
   2779  H        -35.4820   38.6630   36.9330 H     203  SGN203      0.0291
   2780  H        -34.0200   37.5820   36.9180 H     203  SGN203      0.0291
   2781  H        -35.4700   37.4580   35.3660 H     203  SGN203      0.0301
   2782  H        -33.4170   37.6520   35.5400 H     203  SGN203      0.0267
   2783  H        -35.7180   38.3740   36.3180 H     203  SGN203      0.1225
   2784  H        -34.9840   38.9130   36.0710 H     203  SGN203      0.0268
   2785  H        -33.9590   37.7360   37.0010 H     203  SGN203      0.0268
   2786  H        -35.6740   37.5650   37.0230 H     203  SGN203      0.0314
   2787  H        -35.7670   37.9850   37.3970 H     203  SGN203      0.0265
   2788  H        -36.3540   39.3000   36.6470 H     203  SGN203      0.0265
   2789  H        -35.4350   39.3890   38.6390 H     203  SGN203      0.0194
   2790  H        -34.5450   39.6670   37.4400 H     203  SGN203      0.0194
   2791  H        -36.2810   37.4400   36.7850 H     203  SGN203      0.0592
   2792  H        -34.5650   37.7860   37.8170 H     203  SGN203      0.0592
   2793  H        -35.6230   36.2030   36.6890 H     203  SGN203      0.0265
   2794  H        -35.0940   36.7840   37.9490 H     203  SGN203      0.0194
   2795  H        -35.2370   37.7700   39.3840 H     203  SGN203      0.0194
   2796  H        -33.9500   38.0720   38.2420 H     203  SGN203      0.0194
   2797  H        -33.7470   37.8390   38.3070 H     203  SGN203      0.0194
   2798  H        -35.1740   38.5990   37.6430 H     203  SGN203      0.0194
   2799  H        -35.1740   38.0340   39.2970 H     203  SGN203      0.0194
   2800  H        -35.1740   36.8840   37.9810 H     203  SGN203      0.0194
   2801  H        -29.2730   32.3040   36.8310 H     201  LVZ201      0.0000
   2802  H        -29.0190   32.7860   36.8740 H     201  LVZ201      0.0000
   2803  H        -28.6090   32.4710   37.4140 H     201  LVZ201      0.0000
   2804  H        -29.6620   32.2150   36.9800 H     201  LVZ201      0.0000
   2805  H        -29.2820   32.5750   36.7900 H     201  LVZ201      0.0000
   2806  H        -29.4140   32.8160   36.9090 H     201  LVZ201      0.0000
   2807  H        -28.4680   32.4370   36.7580 H     201  LVZ201      0.0000
   2808  H        -29.5710   32.2710   37.2540 H     201  LVZ201      0.0000
   2809  H        -29.0660   32.4990   36.9590 H     201  LVZ201      0.0000
   2810  H        -29.8890   30.9640   37.5690 H     201  LVZ201      0.0000
   2811  H        -29.6380   32.3590   37.3740 H     201  LVZ201      0.0000
   2812  H        -29.8390   32.5890   37.1520 H     201  LVZ201      0.0000
   2813  H        -29.0950   32.9270   37.7580 H     201  LVZ201      0.0000
   2814  H        -29.1420   32.3020   37.3750 H     201  LVZ201      0.0000
   2815  H        -29.0560   32.2930   36.9390 H     201  LVZ201      0.0000
   2816  H        -28.7510   32.7690   37.7350 H     201  LVZ201      0.0000
   2817  H        -32.1330   38.8000   35.3930 H     203  SGN203      0.0230
   2818  H        -31.1140   38.5590   36.7910 H     203  SGN203      0.0230
   2819  H        -30.7070   39.7860   35.6150 H     203  SGN203      0.0230
   2820  H        -30.5570   39.0720   35.4610 H     203  SGN203      0.1225
   2821  H        -32.3550   39.0050   34.8950 H     203  SGN203      0.0306
   2822  H        -31.8410   40.4280   36.3900 H     203  SGN203      0.0265
   2823  H        -30.4350   39.2550   36.0780 H     203  SGN203      0.0265
   2824  H        -30.7460   40.3130   35.1870 H     203  SGN203      0.0233
   2825  H        -30.8890   39.7800   36.7120 H     203  SGN203      0.0233
   2826  H        -30.0440   40.2400   34.8580 H     203  SGN203      0.0471
   2827  H        -30.8520   38.9390   34.7730 H     203  SGN203      0.0471
   2828  H        -31.7270   39.8490   36.0380 H     203  SGN203      0.0669
   2829  H        -30.4640   38.6600   35.1490 H     203  SGN203      0.0235
   2830  H        -30.5150   39.5070   36.6760 H     203  SGN203      0.0235
   2831  H        -30.4100   40.4060   35.1820 H     203  SGN203      0.0235
   2832  H        -30.9680   40.5650   35.1480 H     203  SGN203      0.0230
   2833  H        -31.1670   39.2160   34.5570 H     203  SGN203      0.0230
   2834  H        -31.3130   40.6900   35.0900 H     203  SGN203      0.0230
   2835  H        -32.2290   39.3250   35.6820 H     203  SGN203      0.0230
   2836  H        -30.4840   39.2450   35.6190 H     203  SGN203      0.0230
   2837  H        -31.7540   40.6070   36.2300 H     203  SGN203      0.0271
   2838  H        -30.1060   39.9700   35.9620 H     203  SGN203      0.0271
   2839  H        -32.2820   40.6910   35.8170 H     203  SGN203      0.1225
   2840  H        -32.1320   40.6890   36.6380 H     203  SGN203      0.0265
   2841  H        -30.5390   40.7790   36.6620 H     203  SGN203      0.0265
   2842  H        -30.1960   38.8280   36.2690 H     203  SGN203      0.0194
   2843  H        -31.6230   38.6600   35.2740 H     203  SGN203      0.0194
   2844  H        -31.6230   39.7740   36.6210 H     203  SGN203      0.0194
   2845  H        -31.6230   38.0510   36.9120 H     203  SGN203      0.0194
   2846  H        -32.5080   39.2290   37.0080 H     203  SGN203      0.0265
   2847  H        -32.3690   40.3930   36.0180 H     203  SGN203      0.0265
   2848  H        -31.7750   38.9540   37.1160 H     203  SGN203      0.0301
   2849  H        -30.4910   39.5390   36.5030 H     203  SGN203      0.0194
   2850  H        -31.9180   38.7290   35.9010 H     203  SGN203      0.0194
   2851  H        -31.9180   40.4650   36.1030 H     203  SGN203      0.0194
   2852  H        -31.9180   39.4220   37.5050 H     203  SGN203      0.0194
   2853  H        -30.7760   38.7120   36.1220 H     203  SGN203      0.0298
   2854  H        -29.1350   31.6080   35.2340 H     201  LVZ201      0.0233
   2855  H        -28.1980   31.4580   36.7010 H     201  LVZ201      0.0233
   2856  H        -29.9310   31.2410   36.7450 H     201  LVZ201      0.0233
   2857  H        -29.4800   30.1100   37.2810 H     201  LVZ201      0.0304
   2858  H        -28.0930   31.0060   36.9460 H     201  LVZ201      0.0265
   2859  H        -28.8040   29.7060   36.7210 H     201  LVZ201      0.0265
   2860  H        -29.4550   30.9910   35.3760 H     201  LVZ201      0.0271
   2861  H        -28.4870   31.9130   36.2920 H     201  LVZ201      0.0271
   2862  H        -29.8210   31.7330   36.4810 H     201  LVZ201      0.0235
   2863  H        -29.0720   30.2480   35.9430 H     201  LVZ201      0.0235
   2864  H        -28.2330   31.7690   35.7540 H     201  LVZ201      0.0235
   2865  H        -27.8090   29.8640   35.9170 H     201  LVZ201      0.0309
   2866  H        -28.8050   30.3970   37.8860 H     201  LVZ201      0.0271
   2867  H        -30.0360   30.7190   37.0720 H     201  LVZ201      0.0271
   2868  H        -27.8870   30.1240   36.7870 H     201  LVZ201      0.0271
   2869  H        -28.8630   30.3780   35.6360 H     201  LVZ201      0.0271
   2870  H        -28.7700   31.0060   37.8810 H     201  LVZ201      0.0273
   2871  H        -28.9930   32.1330   36.8830 H     201  LVZ201      0.0273
   2872  H        -28.8120   31.3680   35.2830 H     201  LVZ201      0.0265
   2873  H        -29.5640   31.6830   37.4310 H     201  LVZ201      0.0265
   2874  H        -28.1130   30.5700   36.9890 H     201  LVZ201      0.0988
   2875  H        -28.9680   32.0970   36.6260 H     201  LVZ201      0.0988
   2876  H        -27.7700   30.4260   35.6170 H     201  LVZ201      0.0194
   2877  H        -28.6870   29.2100   36.4730 H     201  LVZ201      0.0194
   2878  H        -28.6160   30.8440   37.0870 H     201  LVZ201      0.0194
   2879  H        -29.3540   29.7690   36.7680 H     201  LVZ201      0.0268
   2880  H        -28.4220   31.9650   36.4600 H     201  LVZ201      0.0230
   2881  H        -27.8370   30.6660   37.4710 H     201  LVZ201      0.0230
   2882  H        -29.4050   31.3740   37.7770 H     201  LVZ201      0.0230
   2883  H        -27.4700   31.5720   37.0450 H     201  LVZ201      0.0276
   2884  H        -28.1730   30.5430   37.9170 H     201  LVZ201      0.0276
   2885  H        -29.6140   36.0570   32.8780 H     202  IDS202      0.0265
   2886  H        -30.9220   35.3060   33.3670 H     202  IDS202      0.0265
   2887  H        -29.9570   36.8560   32.7770 H     202  IDS202      0.0628
   2888  H        -30.6860   34.9840   33.1380 H     202  IDS202      0.0291
   2889  H        -31.4590   35.9730   34.2150 H     202  IDS202      0.0291
   2890  H        -29.2230   35.1610   33.6720 H     202  IDS202      0.0294
   2891  H        -30.3010   35.2200   34.7560 H     202  IDS202      0.0294
   2892  H        -29.0250   36.0020   35.1510 H     202  IDS202      0.0194
   2893  H        -29.5440   35.2730   33.9250 H     202  IDS202      0.0194
   2894  H        -29.2340   36.5020   33.0130 H     202  IDS202      0.0235
   2895  H        -30.4050   36.2780   34.5200 H     202  IDS202      0.0235
   2896  H        -28.8360   34.8560   32.9960 H     202  IDS202      0.0532
   2897  H        -30.2170   35.9900   33.0500 H     202  IDS202      0.0532
   2898  H        -29.0810   35.2960   33.7300 H     202  IDS202      0.0265
   2899  H        -30.6950   35.3720   34.7190 H     202  IDS202      0.0265
   2900  H        -28.3240   35.2680   33.9970 H     202  IDS202      0.0569
   2901  H        -28.2690   36.1390   34.7090 H     202  IDS202      0.0340
   2902  H        -28.5720   36.6500   33.9000 H     202  IDS202      0.0232
   2903  H        -29.5030   35.2730   34.4350 H     202  IDS202      0.0232
   2904  H        -29.7410   36.8320   35.1860 H     202  IDS202      0.0232
   2905  H        -30.4800   36.1410   35.0830 H     202  IDS202      0.0268
   2906  H        -31.0220   37.0080   33.8370 H     202  IDS202      0.0268
   2907  H        -30.1040   36.2660   33.7970 H     202  IDS202      0.0271
   2908  H        -30.0690   37.2390   35.2950 H     202  IDS202      0.0271
   2909  H        -29.3250   36.5810   33.9080 H     202  IDS202      0.0346
   2910  H        -29.6710   35.7150   35.4690 H     202  IDS202      0.0271
   2911  H        -30.2370   37.0590   34.7140 H     202  IDS202      0.0271
   2912  H        -29.3390   36.3930   33.9170 H     202  IDS202      0.0272
   2913  H        -29.8840   34.6720   33.9450 H     202  IDS202      0.0272
   2914  H        -30.7720   36.2330   33.7430 H     202  IDS202      0.0230
   2915  H        -30.4910   34.9500   34.8960 H     202  IDS202      0.0230
   2916  H        -29.3220   36.2360   34.7170 H     202  IDS202      0.0230
   2917  H        -28.8700   36.5170   34.9440 H     202  IDS202      0.1225
   2918  H        -28.4880   31.7310   34.5410 H     201  LVZ201      0.0230
   2919  H        -28.7460   31.4500   36.2460 H     201  LVZ201      0.0230
   2920  H        -27.3260   30.8030   35.4600 H     201  LVZ201      0.0230
   2921  H        -27.1330   31.9070   35.1590 H     201  LVZ201      0.0194
   2922  H        -28.5600   31.5680   34.2090 H     201  LVZ201      0.0194
   2923  H        -28.5600   32.8990   35.3400 H     201  LVZ201      0.0194
   2924  H        -28.5600   31.2540   35.9280 H     201  LVZ201      0.0194
   2925  H        -28.0920   30.6980   36.0160 H     201  LVZ201      0.1225
   2926  H        -28.3920   30.6430   35.6030 H     201  LVZ201      0.0268
   2927  H        -28.8330   32.3160   35.3740 H     201  LVZ201      0.0268
   2928  H        -27.8690   32.5300   34.8300 H     201  LVZ201      0.0307
   2929  H        -26.9180   31.9450   36.1710 H     201  LVZ201      0.0307
   2930  H        -28.4040   32.8460   35.7150 H     201  LVZ201      0.0260
   2931  H        -27.0830   32.4200   34.9260 H     201  LVZ201      0.0260
   2932  H        -26.9340   30.8710   35.8540 H     201  LVZ201      0.0566
   2933  H        -27.4750   30.9880   36.7050 H     201  LVZ201      0.0265
   2934  H        -28.6380   31.9570   36.9520 H     201  LVZ201      0.0265
   2935  H        -27.4280   30.6500   35.3400 H     201  LVZ201      0.0232
   2936  H        -27.4710   31.2640   36.9750 H     201  LVZ201      0.0232
   2937  H        -26.9100   32.2850   35.6740 H     201  LVZ201      0.0232
   2938  H        -28.5920   31.4120   36.4110 H     201  LVZ201      0.0230
   2939  H        -27.1780   32.4210   36.5990 H     201  LVZ201      0.0230
   2940  H        -27.0730   30.9300   35.6940 H     201  LVZ201      0.0230
   2941  H        -28.4140   32.8410   34.9700 H     201  LVZ201      0.1225
   2942  H        -27.2310   31.8740   34.9710 H     201  LVZ201      0.0268
   2943  H        -29.2600   32.1930   36.7280 H     201  LVZ201      0.0233
   2944  H        -28.7650   31.1260   35.4360 H     201  LVZ201      0.0233
   2945  H        -28.6070   32.8560   35.2500 H     201  LVZ201      0.0233
   2946  H        -28.3380   32.6000   36.9910 H     201  LVZ201      0.0301
   2947  H        -26.6300   31.2140   35.4240 H     201  LVZ201      0.0194
   2948  H        -28.0570   31.2770   36.4310 H     201  LVZ201      0.0194
   2949  H        -28.0570   30.3110   34.9750 H     201  LVZ201      0.0194
   2950  H        -28.0570   32.0540   34.8660 H     201  LVZ201      0.0194
   2951  H        -28.5530   31.0640   35.1750 H     201  LVZ201      0.0301
   2952  H        -26.4600   31.7790   35.7410 H     201  LVZ201      0.0194
   2953  H        -27.8870   32.7200   36.1050 H     201  LVZ201      0.0194
   2954  H        -27.8870   30.9940   36.3740 H     201  LVZ201      0.0194
   2955  H        -27.8870   31.6230   34.7440 H     201  LVZ201      0.0194
   2956  H        -28.4220   32.1320   37.0580 H     201  LVZ201      0.0265
   2957  H        -27.2730   32.3550   35.0450 H     201  LVZ201      0.0230
   2958  H        -27.7700   30.8260   35.4240 H     201  LVZ201      0.0230
   2959  H        -32.6800   38.0030   35.1090 H     203  SGN203      0.2052
   2960  H        -33.9730   38.5260   35.8590 H     203  SGN203      0.2052
   2961  H        -33.6540   38.6530   35.6580 H     203  SGN203      0.2562
   2962  H        -32.0400   38.0860   34.9020 H     203  SGN203      0.2563
   2963  H        -32.3550   38.5570   35.1650 H     203  SGN203      0.2052
   2964  H        -33.6480   39.0740   35.9190 H     203  SGN203      0.2052
   2965  H        -32.8110   36.2190   35.4470 H     203  SGN203      0.2562
   2966  H        -32.3370   37.7540   35.7680 H     203  SGN203      0.2052
   2967  H        -33.6300   37.4330   36.6240 H     203  SGN203      0.2052
   2968  H        -33.4630   37.3180   37.4970 H     203  SGN203      0.2094
   2969  H        -32.4000   37.6250   35.9750 H     203  SGN203      0.2052
   2970  H        -25.8400   30.8910   34.6900 H     201  LVZ201      0.0194
   2971  H        -27.2670   31.8220   35.0780 H     201  LVZ201      0.0194
   2972  H        -27.2670   30.0890   35.3020 H     201  LVZ201      0.0194
   2973  H        -27.2670   30.7620   33.6900 H     201  LVZ201      0.0194
   2974  H        -28.0820   31.8470   34.2460 H     201  LVZ201      0.0227
   2975  H        -26.6710   31.5330   33.6110 H     201  LVZ201      0.0227
   2976  H        -28.1610   30.4600   35.0970 H     201  LVZ201      0.0227
   2977  H        -26.8960   31.6460   35.3120 H     201  LVZ201      0.0227
   2978  H        -26.5340   30.1080   34.5650 H     201  LVZ201      0.0227
   2979  H        -26.0110   30.8410   34.8880 H     201  LVZ201      0.0194
   2980  H        -27.4380   29.9560   34.4040 H     201  LVZ201      0.0194
   2981  H        -27.4380   31.7030   34.3640 H     201  LVZ201      0.0194
   2982  H        -27.4380   30.8640   35.8970 H     201  LVZ201      0.0194
   2983  H        -27.6910   30.8790   33.9070 H     201  LVZ201      0.0572
   2984  H        -27.3370   31.8370   35.3770 H     201  LVZ201      0.0230
   2985  H        -27.1620   31.3680   33.7030 H     201  LVZ201      0.0230
   2986  H        -25.8540   31.0940   34.8290 H     201  LVZ201      0.0230
   2987  H        -25.8650   30.4910   35.2450 H     201  LVZ201      0.0532
   2988  H        -26.6500   29.9300   33.7410 H     201  LVZ201      0.0532
   2989  H        -26.2600   30.2640   35.5840 H     201  LVZ201      0.0238
   2990  H        -27.8630   30.2030   34.8910 H     201  LVZ201      0.0238
   2991  H        -27.4550   31.4550   36.0400 H     201  LVZ201      0.0238
   2992  H        -27.5050   30.3650   34.4300 H     201  LVZ201      0.0555
   2993  H        -25.9190   30.9890   34.8110 H     201  LVZ201      0.0555
   2994  H        -27.1950   31.0600   36.0030 H     201  LVZ201      0.0555
   2995  H        -26.0110   30.8060   34.8900 H     201  LVZ201      0.0194
   2996  H        -27.4380   31.2050   33.9630 H     201  LVZ201      0.0194
   2997  H        -27.4380   31.4090   35.6990 H     201  LVZ201      0.0194
   2998  H        -27.4380   29.8040   35.0080 H     201  LVZ201      0.0194
   2999  H        -26.3170   31.1100   34.5370 H     201  LVZ201      0.0194
   3000  H        -27.7440   32.0940   34.3150 H     201  LVZ201      0.0194
   3001  H        -27.7440   30.8100   35.5000 H     201  LVZ201      0.0194
   3002  H        -27.7440   30.4260   33.7960 H     201  LVZ201      0.0194
   3003  H        -28.3950   31.4620   34.2420 H     201  LVZ201      0.0532
   3004  H        -27.2100   30.2520   34.8120 H     201  LVZ201      0.0532
   3005  H        -27.7730   31.9100   34.3300 H     201  LVZ201      0.0238
   3006  H        -27.5270   31.5040   36.0120 H     201  LVZ201      0.0238
   3007  H        -27.9340   30.2530   34.8620 H     201  LVZ201      0.0238
   3008  H        -25.8190   30.3220   34.7190 H     201  LVZ201      0.0230
   3009  H        -27.3760   29.4930   34.5630 H     201  LVZ201      0.0230
   3010  H        -27.5100   30.3110   34.3150 H     201  LVZ201      0.1225
   3011  H        -26.1050   31.6670   34.0990 H     201  LVZ201      0.0238
   3012  H        -26.2300   30.0290   34.6930 H     201  LVZ201      0.0238
   3013  H        -26.0270   31.3510   35.8160 H     201  LVZ201      0.0238
   3014  H        -26.5160   31.9100   35.8290 H     201  LVZ201      0.1225
   3015  H        -26.8220   30.4760   35.8050 H     201  LVZ201      0.0260
   3016  H        -28.1330   30.7410   34.7120 H     201  LVZ201      0.0260
   3017  H        -29.4850   33.9590   32.9000 H     202  IDS202      0.0000
   3018  H        -29.7580   34.0260   33.0800 H     202  IDS202      0.0000
   3019  H        -29.5950   33.7730   33.1160 H     202  IDS202      0.0000
   3020  H        -29.3600   33.9650   33.3140 H     202  IDS202      0.0000
   3021  H        -28.7860   34.4910   33.1830 H     202  IDS202      0.0000
   3022  H        -28.7270   33.5370   32.7780 H     202  IDS202      0.0000
   3023  H        -29.3330   33.8120   33.5300 H     202  IDS202      0.0000
   3024  H        -29.5230   34.2850   33.4100 H     202  IDS202      0.0000
   3025  H        -29.8870   34.3430   34.1950 H     202  IDS202      0.0000
   3026  H        -28.7600   33.6220   32.8810 H     202  IDS202      0.0000
   3027  H        -29.1920   33.7140   33.5190 H     202  IDS202      0.0000
   3028  H        -29.6240   33.9890   33.7730 H     202  IDS202      0.0000
   3029  H        -33.4540   37.1190   36.9760 H     203  SGN203      0.0000
   3030  H        -31.9670   36.9200   36.5930 H     203  SGN203      0.0000
   3031  H        -32.2730   37.1130   37.0040 H     203  SGN203      0.0000
   3032  H        -32.2780   37.5010   38.7600 H     203  SGN203      0.0000
   3033  H        -32.0900   37.4290   38.6620 H     203  SGN203      0.0000
   3034  H        -35.2130   37.8940   36.3940 H     203  SGN203      0.0000
   3035  H        -35.2430   38.4150   35.2490 H     203  SGN203      0.0000
   3036  H        -34.6550   37.6890   35.2960 H     203  SGN203      0.0000
   3037  H        -34.0850   38.0830   34.8220 H     203  SGN203      0.0000
   3038  H        -34.9410   39.0510   35.6930 H     203  SGN203      0.0000
   3039  H        -34.7790   39.0490   35.2160 H     203  SGN203      0.0000
   3040  H        -35.0820   39.5620   35.5480 H     203  SGN203      0.0000
   3041  H        -35.1690   39.6080   36.8170 H     203  SGN203      0.0000
   3042  H        -35.2430   37.9760   36.0850 H     203  SGN203      0.0000
   3043  H        -34.9350   38.2470   37.5620 H     203  SGN203      0.0000
   3044  H        -34.7990   38.0840   37.4330 H     203  SGN203      0.0000
   3045  H        -29.2990   31.5130   36.1970 H     201  LVZ201      0.2563
   3046  H        -29.5260   31.8680   38.1840 H     201  LVZ201      0.2528
   3047  H        -30.4030   31.8110   37.0140 H     201  LVZ201      0.2563
   3048  H        -30.6740   31.8180   37.4140 H     201  LVZ201      0.2562
   3049  H        -29.3040   32.3110   36.4690 H     201  LVZ201      0.2562
   3050  H        -29.9210   31.6500   38.7800 H     201  LVZ201      0.2563
   3051  H        -28.8790   30.7580   37.8400 H     201  LVZ201      0.2562
   3052  H        -28.3450   31.5800   37.0810 H     201  LVZ201      0.2562
   3053  H        -28.4010   30.9530   38.4390 H     201  LVZ201      0.2528
   3054  H        -25.5990   32.1540   33.2460 H     201  LVZ201      0.1225
   3055  H        -25.8460   31.0700   33.8520 H     201  LVZ201      0.0194
   3056  H        -27.0040   31.9270   34.2070 H     201  LVZ201      0.0194
   3057  H        -26.3230   30.7870   34.5990 H     201  LVZ201      0.0260
   3058  H        -26.6380   31.3390   33.1230 H     201  LVZ201      0.0260
   3059  H        -27.0400   31.6940   34.6400 H     201  LVZ201      0.0301
   3060  H        -25.1590   32.3270   34.4200 H     201  LVZ201      0.0253
   3061  H        -26.3420   31.0600   34.6400 H     201  LVZ201      0.0253
   3062  H        -26.5490   32.2370   33.3660 H     201  LVZ201      0.0253
   3063  H        -25.3480   32.1470   33.2250 H     201  LVZ201      0.0265
   3064  H        -25.4560   30.8330   34.6550 H     201  LVZ201      0.0265
   3065  H        -25.1120   32.0480   32.9570 H     201  LVZ201      0.0589
   3066  H        -24.9570   30.8420   34.2650 H     201  LVZ201      0.0589
   3067  H        -26.3090   31.2670   35.3690 H     201  LVZ201      0.1225
   3068  H        -24.6400   31.2000   34.4130 H     201  LVZ201      0.0194
   3069  H        -26.0670   32.2060   34.3430 H     201  LVZ201      0.0194
   3070  H        -26.0670   30.7580   35.3200 H     201  LVZ201      0.0194
   3071  H        -26.0670   30.6360   33.5770 H     201  LVZ201      0.0194
   3072  H        -24.8940   31.4310   34.3830 H     201  LVZ201      0.0291
   3073  H        -26.4030   30.5590   34.5830 H     201  LVZ201      0.0291
   3074  H        -25.8710   32.0040   35.1500 H     201  LVZ201      0.0230
   3075  H        -25.5770   31.3970   33.1980 H     201  LVZ201      0.0230
   3076  H        -27.4480   32.6700   33.6580 H     201  LVZ201      0.0230
   3077  H        -26.7390   32.0840   35.1440 H     201  LVZ201      0.0230
   3078  H        -27.1010   30.9680   33.8490 H     201  LVZ201      0.0230
   3079  H        -25.8870   32.2290   35.1620 H     201  LVZ201      0.0230
   3080  H        -27.4540   31.8660   34.4810 H     201  LVZ201      0.0230
   3081  H        -26.3470   32.9070   33.6190 H     201  LVZ201      0.0230
   3082  H        -26.5220   30.3850   33.5450 H     201  LVZ201      0.0591
   3083  H        -26.2430   32.1800   33.2250 H     201  LVZ201      0.0591
   3084  H        -24.9440   31.7360   34.1770 H     201  LVZ201      0.0194
   3085  H        -26.3710   32.0100   35.1480 H     201  LVZ201      0.0194
   3086  H        -26.3710   30.7580   33.9280 H     201  LVZ201      0.0194
   3087  H        -26.3710   32.4400   33.4550 H     201  LVZ201      0.0194
   3088  H        -24.7330   31.2130   34.6510 H     201  LVZ201      0.0230
   3089  H        -26.2640   32.6670   34.4760 H     201  LVZ201      0.0230
   3090  H        -26.9370   31.7730   34.7050 H     201  LVZ201      0.0194
   3091  H        -25.3560   31.9230   33.5540 H     201  LVZ201      0.0194
   3092  H        -26.0280   30.7170   34.6250 H     201  LVZ201      0.0194
   3093  H        -27.0830   31.6620   33.6030 H     201  LVZ201      0.0194
   3094  H        -31.5240   40.0970   35.7510 H     203  SGN203      0.0000
   3095  H        -31.1290   40.5630   35.0680 H     203  SGN203      0.0000
   3096  H        -31.5100   40.2900   35.1680 H     203  SGN203      0.0000
   3097  H        -31.1850   40.3130   35.0410 H     203  SGN203      0.0000
   3098  H        -31.4000   40.3770   35.4570 H     203  SGN203      0.0000
   3099  H        -31.3230   40.5260   35.1260 H     203  SGN203      0.0000
   3100  H        -30.4560   40.4250   35.1820 H     203  SGN203      0.0000
   3101  H        -30.7560   40.3130   35.1260 H     203  SGN203      0.0000
   3102  H        -31.4420   40.3230   34.9040 H     203  SGN203      0.0000
   3103  H        -31.2780   40.6460   35.2670 H     203  SGN203      0.0000
   3104  H        -31.0390   40.6270   35.2430 H     203  SGN203      0.0000
   3105  H        -31.2270   40.7840   35.6890 H     203  SGN203      0.0000
   3106  H        -31.8690   40.3050   35.9970 H     203  SGN203      0.0000
   3107  H        -31.6550   39.9240   35.5250 H     203  SGN203      0.0000
   3108  H        -31.8360   41.2000   37.9200 H     203  SGN203      0.0000
   3109  H        -30.8610   41.7680   37.0580 H     203  SGN203      0.0000
   3110  H        -32.0750   41.6900   36.7670 H     203  SGN203      0.0000
   3111  H        -30.8370   41.8530   37.0260 H     203  SGN203      0.0000
   3112  H        -30.4880   40.9050   38.4350 H     203  SGN203      0.0000
   3113  H        -31.4810   41.5990   36.9640 H     203  SGN203      0.0000
   3114  H        -31.2600   41.9610   36.7660 H     203  SGN203      0.0000
   3115  H        -31.6420   41.9050   36.8960 H     203  SGN203      0.0000
   3116  H        -30.1620   41.5500   37.5270 H     203  SGN203      0.0000
   3117  H        -30.2880   40.3780   38.2180 H     203  SGN203      0.0000
   3118  H        -32.5190   40.1490   39.1140 H     203  SGN203      0.0000
   3119  H        -33.1300   40.3100   39.0800 H     203  SGN203      0.0000
   3120  H        -33.3700   39.9380   39.2480 H     203  SGN203      0.0000
   3121  H        -33.3150   39.3610   40.2810 H     203  SGN203      0.0000
   3122  H        -30.4900   38.7650   38.2260 H     203  SGN203      0.0000
   3123  H        -30.5500   38.9770   37.6410 H     203  SGN203      0.0000
   3124  H        -31.0090   38.6940   37.6560 H     203  SGN203      0.0000
   3125  H        -30.4200   39.0480   37.6340 H     203  SGN203      0.0000
   3126  H        -30.5820   38.9400   37.9690 H     203  SGN203      0.0000
   3127  H        -30.7800   39.4050   37.9230 H     203  SGN203      0.0000
   3128  H        -29.9950   38.8120   37.5920 H     203  SGN203      0.0000
   3129  H        -30.2690   39.2370   38.0490 H     203  SGN203      0.0000
   3130  H        -30.1470   39.0410   37.7550 H     203  SGN203      0.0000
   3131  H        -30.6330   39.4600   37.9270 H     203  SGN203      0.0000
   3132  H        -30.6110   37.8850   38.2300 H     203  SGN203      0.0000
   3133  H        -30.8710   39.0650   38.3120 H     203  SGN203      0.0000
   3134  H        -30.3130   35.5890   32.0940 H     202  IDS202      0.2563
   3135  H        -29.1390   36.6940   33.6980 H     202  IDS202      0.2052
   3136  H        -29.7830   36.5430   33.6440 H     202  IDS202      0.2052
   3137  H        -28.7090   35.9920   32.6280 H     202  IDS202      0.2562
   3138  H        -30.9980   36.0830   33.2480 H     202  IDS202      0.2562
   3139  H        -31.5050   34.9360   32.9570 H     202  IDS202      0.2562
   3140  H        -30.1530   36.4200   31.6630 H     202  IDS202      0.0000
   3141  H        -29.9680   35.8700   31.7970 H     202  IDS202      0.0000
   3142  H        -28.7600   37.9170   32.7420 H     202  IDS202      0.0000
   3143  H        -31.1340   35.4330   33.3460 H     202  IDS202      0.0000
   3144  H        -29.6470   36.5610   32.0850 H     202  IDS202      0.0000
   3145  H        -28.5100   36.2790   32.2780 H     202  IDS202      0.0000
   3146  H        -31.1570   35.4160   33.3730 H     202  IDS202      0.0000
   3147  H        -25.8450   32.4900   33.5160 H     201  LVZ201      0.0000
   3148  H        -26.1820   32.7890   32.9970 H     201  LVZ201      0.0000
   3149  H        -26.0270   32.5870   33.5440 H     201  LVZ201      0.0000
   3150  H        -26.0040   32.4670   33.5520 H     201  LVZ201      0.0000
   3151  H        -25.6020   32.4130   33.2280 H     201  LVZ201      0.0000
   3152  H        -25.3400   32.6120   33.5560 H     201  LVZ201      0.0000
   3153  H        -26.2080   32.7980   33.3040 H     201  LVZ201      0.0000
   3154  H        -25.7770   32.7110   33.5530 H     201  LVZ201      0.0000
   3155  H        -26.7940   32.4610   33.3610 H     201  LVZ201      0.0000
   3156  H        -25.9440   32.4550   33.5700 H     201  LVZ201      0.0000
   3157  H        -25.1330   32.4860   33.5180 H     201  LVZ201      0.0000
   3158  H        -24.9740   26.9280   32.6880 H     201  LVZ201      0.0000
   3159  H        -26.0630   26.2180   32.9700 H     201  LVZ201      0.0000
   3160  H        -25.3540   26.2590   32.9060 H     201  LVZ201      0.0000
   3161  H        -25.6120   26.6040   32.9360 H     201  LVZ201      0.0000
   3162  H        -25.9630   25.9620   33.0000 H     201  LVZ201      0.0000
   3163  H        -29.4620   28.1290   32.8180 H     201  LVZ201      0.0000
   3164  H        -29.0120   27.0760   33.2040 H     201  LVZ201      0.0000
   3165  H        -27.5060   26.5340   32.6220 H     201  LVZ201      0.0000
   3166  H        -26.6270   28.3140   33.0600 H     201  LVZ201      0.0000
   3167  H        -27.4970   26.5410   33.1960 H     201  LVZ201      0.0000
   3168  H        -25.1450   27.0770   35.2800 H     201  LVZ201      0.0000
   3169  H        -34.9600   38.3430   37.3840 H     203  SGN203      0.0000
   3170  H        -35.5140   39.0470   36.8380 H     203  SGN203      0.0000
   3171  H        -35.1820   38.2480   36.9270 H     203  SGN203      0.0000
   3172  H        -34.6360   39.0560   36.8440 H     203  SGN203      0.0000
   3173  H        -35.1100   38.3000   35.6590 H     203  SGN203      0.0000
   3174  H        -35.2420   38.9620   36.8710 H     203  SGN203      0.0000
   3175  H        -35.3050   39.0800   37.2110 H     203  SGN203      0.0000
   3176  H        -34.9650   37.2370   38.1110 H     203  SGN203      0.0000
   3177  H        -34.7300   38.0380   39.3350 H     203  SGN203      0.0000
   3178  H        -34.5540   38.3490   39.2020 H     203  SGN203      0.0000
   3179  H        -25.7990   26.5250   35.4310 H     201  LVZ201      0.0000
   3180  H        -25.4640   26.3830   35.6630 H     201  LVZ201      0.0000
   3181  H        -25.9980   27.0550   35.3250 H     201  LVZ201      0.0000
   3182  H        -26.4990   26.3640   35.2760 H     201  LVZ201      0.0000
   3183  H        -24.9710   27.3750   33.8710 H     201  LVZ201      0.0000
   3184  H        -26.5790   26.5080   35.3420 H     201  LVZ201      0.0000
   3185  H        -25.9630   28.2890   36.9930 H     201  LVZ201      0.0000
   3186  H        -25.8440   28.3700   36.8250 H     201  LVZ201      0.0000
   3187  H        -25.8550   28.4390   36.9390 H     201  LVZ201      0.0000
   3188  H        -25.3590   28.3830   37.0950 H     201  LVZ201      0.0000
   3189  H        -26.7680   27.8810   36.5020 H     201  LVZ201      0.0000
   3190  H        -26.5100   28.4060   36.8640 H     201  LVZ201      0.0000
   3191  H        -25.5680   27.7830   36.4810 H     201  LVZ201      0.0000
   3192  H        -25.7990   28.1170   36.7140 H     201  LVZ201      0.0000
@<TRIPOS>BOND
     1     1   221    1
     2     2   233    1
     3     3   222    1
     4     4   236    1
     5     5  1797    1
     6     6   232    1
     7     7  1798    1
     8     8  1799    1
     9     9  1800    1
    10    10  1801    1
    11    11  1802    1
    12    12   239    1
    13    13   240    1
    14    14  1803    1
    15    15  1804    1
    16    16  1805    1
    17    17   232    1
    18    18  1806    1
    19    19  1807    1
    20    20  1808    1
    21    21   221    1
    22    22   236    1
    23    23  1809    1
    24    24  1810    1
    25    25  1811    1
    26    26  1812    1
    27    27   232    1
    28    28  1813    1
    29    29   231    1
    30    30   231    1
    31    31   226    1
    32    32  1814    1
    33    33   239    1
    34    34  1815    1
    35    35  1816    1
    36    36  1817    1
    37    37  1818    1
    38    38  1819    1
    39    39    71    1
    40    40  1820    1
    41    41   460    1
    42    41  1539    1
    43    42    57    1
    44    42  1556    1
    45    43    53    1
    46    43    50    1
    47    44  1821    1
    48    44  1822    1
    49    45  1823    1
    50    45  1824    1
    51    46    47    1
    52    46    58    1
    53    47    54    1
    54    48   461    1
    55    48    50    1
    56    49   479    1
    57    49    53    1
    58    51  1825    1
    59    51  1826    1
    60    52   219    1
    61    52  1547    1
    62    54  1542    1
    63    55  1545    1
    64    55  1552    1
    65    56   698    2
    66    57  1827    1
    67    58  1548    1
    68    59  1550    1
    69    59  1828    1
    70    60  1540    1
    71    60  1829    1
    72    61   800    1
    73    61  1638    1
    74    61   181    1
    75    61   401    1
    76    62   405    1
    77    62   407    1
    78    62    77    1
    79    63   189    1
    80    63    78    1
    81    63  1830    1
    82    63  1831    1
    83    64   414    1
    84    64    69    1
    85    64  1832    1
    86    64  1833    1
    87    65   409    1
    88    65  1720    1
    89    65  1834    1
    90    65  1835    1
    91    66   412    1
    92    66    67    1
    93    66    68    1
    94    66  1836    1
    95    67  1649    1
    96    67  1837    1
    97    67  1838    1
    98    68   413    1
    99    68    70    1
   100    69   419    1
   101    69    74    1
   102    69  1839    1
   103    70  1840    1
   104    70  1841    1
   105    71   200    1
   106    71  1842    1
   107    71  1843    1
   108    72  1642    1
   109    72   815    1
   110    72   817    1
   111    72  1844    1
   112    73   418    1
   113    73   194    1
   114    73  1845    1
   115    73  1846    1
   116    74  1847    1
   117    74  1848    1
   118    74  1849    1
   119    75   408    1
   120    75   239    1
   121    75  1850    1
   122    75  1851    1
   123    76   417    1
   124    76  1641    1
   125    76    78    1
   126    76  1852    1
   127    77  1853    1
   128    77  1854    1
   129    78  1855    1
   130    78  1856    1
   131    79   815    1
   132    79   801    1
   133    79  1857    1
   134    79  1858    1
   135    80   188    1
   136    80  1859    1
   137    80  1860    1
   138    80  1861    1
   139    81   940    1
   140    81   480    1
   141    82    85    1
   142    82  1862    1
   143    83    94    2
   144    84  1863    1
   145    84  1864    1
   146    85    93    1
   147    86    97    1
   148    86  1865    1
   149    87  1866    1
   150    87  1867    1
   151    88   175    1
   152    88  1868    1
   153    89    91    1
   154    89  1869    1
   155    90    91    1
   156    90  1870    1
   157    92  1871    1
   158    92  1872    1
   159    93  1873    1
   160    95    99    2
   161    96   952    1
   162    96  1874    1
   163    97    98    1
   164    98   954    1
   165   100  1875    1
   166   100  1876    1
   167   101  1200    1
   168   101  1215    1
   169   102   120    2
   170   103  1467    1
   171   103  1477    1
   172   104   117    1
   173   105   112    1
   174   107  1468    2
   175   110   112    1
   176   110  1207    1
   177   111  1212    2
   178   113   825    1
   179   114   119    2
   180   115  1215    1
   181   115  1216    1
   182   116  1207    2
   183   117  1209    1
   184   118   836    1
   185   121   960    1
   186   122   125    2
   187   123   978    2
   188   124   659    1
   189   124   127    1
   190   126   127    1
   191   128   134    1
   192   128   658    1
   193   129   741    2
   194   130   744    2
   195   132   139    1
   196   133   963    1
   197   134   963    1
   198   135   743    1
   199   137   854    1
   200   137   740    1
   201   138   854    1
   202   138   843    1
   203   139   746    1
   204   141   660    1
   205   141   580    1
   206   141   900    1
   207   142   908    1
   208   142   158    2
   209   143   146    1
   210   143   153    1
   211   143  1877    1
   212   144   148    1
   213   144   150    1
   214   144  1878    1
   215   145   157    1
   216   145   160    1
   217   145  1879    1
   218   146   912    1
   219   146   150    1
   220   147   150    1
   221   147  1880    1
   222   147  1881    1
   223   148   160    1
   224   148  1882    1
   225   149   159    1
   226   149  1883    1
   227   149  1884    1
   228   150   914    1
   229   151   155    3
   230   152   159    1
   231   152   154    1
   232   152  1885    1
   233   153  1886    1
   234   153  1887    1
   235   154   159    1
   236   154  1888    1
   237   156   907    1
   238   156  1889    1
   239   156  1890    1
   240   157  1891    1
   241   157  1892    1
   242   158  1893    1
   243   160  1894    1
   244   161  1240    1
   245   162  1251    1
   246   163  1895    1
   247   164  1896    1
   248   165  1897    1
   249   166  1898    1
   250   167  1899    1
   251   168  1900    1
   252   169  1245    1
   253   170  1901    1
   254   171  1902    1
   255   172  1903    1
   256   173  1904    1
   257   174  1246    1
   258   176  1905    1
   259   177  1906    1
   260   178  1245    1
   261   179  1907    1
   262   180  1908    1
   263   182  1909    1
   264   183  1910    1
   265   184  1911    1
   266   185  1912    1
   267   186  1913    1
   268   187  1914    1
   269   190  1915    1
   270   191  1916    1
   271   192  1917    1
   272   193  1918    1
   273   195  1919    1
   274   196  1920    1
   275   197  1921    1
   276   198  1922    1
   277   199   236    1
   278   201   460    1
   279   202  1923    1
   280   203  1924    1
   281   204  1925    1
   282   205  1926    1
   283   206   473    1
   284   207  1927    1
   285   208   472    1
   286   209  1928    1
   287   210   473    1
   288   211  1929    1
   289   212  1930    1
   290   213  1931    1
   291   214  1932    1
   292   215  1933    1
   293   216   694    1
   294   217  1934    1
   295   218  1935    1
   296   220  1936    1
   297   221   800    1
   298   221   500    1
   299   222  1937    1
   300   222  1938    1
   301   222  1939    1
   302   223   224    3
   303   223  1940    1
   304   224  1941    1
   305   225   237    1
   306   225  1942    1
   307   225  1943    1
   308   225  1944    1
   309   226   237    1
   310   226  1945    1
   311   226  1946    1
   312   227   504    1
   313   227  1947    1
   314   227  1948    1
   315   227  1949    1
   316   228   230    1
   317   228  1950    1
   318   228  1951    1
   319   228  1952    1
   320   229   505    1
   321   229  1953    1
   322   229  1954    1
   323   229  1955    1
   324   230   503    1
   325   230  1956    1
   326   230  1957    1
   327   231   511    1
   328   231  1958    1
   329   232  1959    1
   330   233   234    2
   331   233  1960    1
   332   234  1961    1
   333   234  1962    1
   334   235   240    1
   335   235  1963    1
   336   235  1964    1
   337   235  1965    1
   338   236  1966    1
   339   237  1967    1
   340   237  1968    1
   341   238   404    1
   342   238  1718    1
   343   238  1969    1
   344   238  1970    1
   345   239   810    1
   346   240  1971    1
   347   240  1972    1
   348   241  1757    1
   349   241  1459    1
   350   243   254    1
   351   245  1457    2
   352   246   253    1
   353   246   256    1
   354   247   251    2
   355   248  1444    2
   356   252  1448    2
   357   253   256    1
   358   254   255    1
   359   255   257    1
   360   257   259    1
   361   258  1764    1
   362   258   260    1
   363   259  1459    1
   364   260  1751    1
   365   261  1420    1
   366   262  1973    1
   367   263  1432    1
   368   264  1438    1
   369   265  1974    1
   370   266  1975    1
   371   267  1976    1
   372   268   579    1
   373   269  1977    1
   374   270   578    1
   375   271   579    1
   376   272  1438    1
   377   273  1437    1
   378   274  1978    1
   379   275  1979    1
   380   276  1980    1
   381   277  1981    1
   382   278  1982    1
   383   279  1983    1
   384   280  1984    1
   385   281   860    1
   386   282  1985    1
   387   283  1986    1
   388   284   870    1
   389   285  1987    1
   390   286  1988    1
   391   287  1989    1
   392   288  1990    1
   393   289  1991    1
   394   290  1992    1
   395   291  1993    1
   396   292  1994    1
   397   293  1995    1
   398   294   866    1
   399   295   872    1
   400   296  1996    1
   401   297  1997    1
   402   298  1998    1
   403   299  1999    1
   404   300  2000    1
   405   301  1678    1
   406   302   306    2
   407   305   310    1
   408   305   312    1
   409   307   310    1
   410   309   313    1
   411   309   316    1
   412   311   619    2
   413   312  1697    1
   414   314   319    1
   415   314   320    1
   416   315   317    2
   417   318   319    1
   418   321   420    1
   419   321   341    1
   420   321  1100    1
   421   321  2001    1
   422   322  2002    1
   423   322  2003    1
   424   322  2004    1
   425   322  2005    1
   426   323   330    1
   427   323   325    1
   428   323  2006    1
   429   323  2007    1
   430   324   345    1
   431   324  2008    1
   432   324  2009    1
   433   324  2010    1
   434   325   330    1
   435   325   333    1
   436   325  2011    1
   437   326  1054    1
   438   326   331    1
   439   326   332    1
   440   326  2012    1
   441   327   328    1
   442   327   333    1
   443   327  2013    1
   444   327  2014    1
   445   328   330    1
   446   328  2015    1
   447   328  2016    1
   448   329   332    1
   449   329  2017    1
   450   329  2018    1
   451   329  2019    1
   452   330  2020    1
   453   331   348    1
   454   331   332    1
   455   331  2021    1
   456   332   434    1
   457   333  2022    1
   458   333  2023    1
   459   334   343    1
   460   334   353    1
   461   334  2024    1
   462   334  2025    1
   463   335  2026    1
   464   335  2027    1
   465   335  2028    1
   466   335  2029    1
   467   336   338    1
   468   336  2030    1
   469   336  2031    1
   470   336  2032    1
   471   337   338    1
   472   337  2033    1
   473   337  2034    1
   474   337  2035    1
   475   338  1105    1
   476   338  2036    1
   477   339  2037    1
   478   339  2038    1
   479   339  2039    1
   480   339  2040    1
   481   340  1104    1
   482   340  2041    1
   483   340  2042    1
   484   340  2043    1
   485   341   355    1
   486   342   352    2
   487   343   353    1
   488   344   351    1
   489   344  2044    1
   490   345   347    1
   491   346   350    1
   492   346  2045    1
   493   347   348    1
   494   349   357    1
   495   349  2046    1
   496   350   351    1
   497   354  1375    1
   498   354  2047    1
   499   355  2048    1
   500   356   358    2
   501   357  1103    1
   502   359  1103    1
   503   359   360    1
   504   360  1113    1
   505   361  1000    1
   506   361   580    1
   507   361   700    1
   508   361  1777    1
   509   362   367    1
   510   362   368    1
   511   362   373    1
   512   362  2049    1
   513   363   379    1
   514   363  2050    1
   515   363  2051    1
   516   363  2052    1
   517   364  2053    1
   518   364  2054    1
   519   364  2055    1
   520   364  2056    1
   521   365   367    1
   522   365   366    1
   523   365   375    1
   524   365  2057    1
   525   366  2058    1
   526   366  2059    1
   527   366  2060    1
   528   367  2061    1
   529   367  2062    1
   530   368  1783    1
   531   368  2063    1
   532   368  2064    1
   533   369   380    2
   534   369  2065    1
   535   369  2066    1
   536   370  2067    1
   537   370  2068    1
   538   370  2069    1
   539   370  2070    1
   540   371   372    1
   541   371   374    1
   542   371  2071    1
   543   371  2072    1
   544   372   374    1
   545   372  2073    1
   546   372  2074    1
   547   373  2075    1
   548   373  2076    1
   549   373  2077    1
   550   374   379    1
   551   374  2078    1
   552   375   595    1
   553   375  2079    1
   554   375  2080    1
   555   376   378    1
   556   376  2081    1
   557   376  2082    1
   558   376  2083    1
   559   377  1788    1
   560   377  2084    1
   561   377  2085    1
   562   377  2086    1
   563   378   379    1
   564   378   380    1
   565   378  1779    1
   566   379  2087    1
   567   380  2088    1
   568   381   980    1
   569   382  2089    1
   570   383  2090    1
   571   384  2091    1
   572   385  2092    1
   573   386  2093    1
   574   387  2094    1
   575   388  2095    1
   576   389  2096    1
   577   390   987    1
   578   391  2097    1
   579   392  2098    1
   580   393   988    1
   581   394   988    1
   582   395   995    1
   583   396  2099    1
   584   397  2100    1
   585   398  2101    1
   586   399  2102    1
   587   400  2103    1
   588   402  2104    1
   589   403  2105    1
   590   406  2106    1
   591   410  2107    1
   592   411  2108    1
   593   415  2109    1
   594   416  2110    1
   595   420   940    1
   596   420   540    1
   597   420  1040    1
   598   421   424    2
   599   421  2111    1
   600   421  2112    1
   601   422   429    3
   602   422  2113    1
   603   423  1051    1
   604   423  2114    1
   605   423  2115    1
   606   423  2116    1
   607   424   431    1
   608   424  2117    1
   609   425  2118    1
   610   425  2119    1
   611   425  2120    1
   612   425  2121    1
   613   426   432    1
   614   426  2122    1
   615   426  2123    1
   616   426  2124    1
   617   427   543    2
   618   427  2125    1
   619   427  2126    1
   620   428  2127    1
   621   428  2128    1
   622   428  2129    1
   623   428  2130    1
   624   429  2131    1
   625   430   432    1
   626   430  2132    1
   627   430  2133    1
   628   430  2134    1
   629   431   433    1
   630   431  2135    1
   631   431  2136    1
   632   432  2137    1
   633   432  2138    1
   634   433  2139    1
   635   433  2140    1
   636   433  2141    1
   637   434  2142    1
   638   434  2143    1
   639   434  2144    1
   640   435  1052    1
   641   435   437    1
   642   435  2145    1
   643   435  2146    1
   644   436   437    1
   645   436   438    1
   646   436   439    1
   647   436  2147    1
   648   437  2148    1
   649   437  2149    1
   650   438  2150    1
   651   438  2151    1
   652   438  2152    1
   653   439   554    1
   654   439  2153    1
   655   439  2154    1
   656   440  1320    1
   657   441  2155    1
   658   442  2156    1
   659   443  2157    1
   660   444  2158    1
   661   445  2159    1
   662   446  2160    1
   663   447  2161    1
   664   448  2162    1
   665   449  2163    1
   666   450  2164    1
   667   451  2165    1
   668   452  1322    1
   669   453  2166    1
   670   454  2167    1
   671   455  2168    1
   672   456  2169    1
   673   457  1335    1
   674   458  2170    1
   675   459  2171    1
   676   460   780    1
   677   460   680    1
   678   461   477    1
   679   461  2172    1
   680   461  2173    1
   681   462   473    1
   682   462  2174    1
   683   462  2175    1
   684   462  2176    1
   685   463  2177    1
   686   463  2178    1
   687   463  2179    1
   688   463  2180    1
   689   464   472    1
   690   464   468    1
   691   464   466    1
   692   464   465    1
   693   465   466    1
   694   465   477    1
   695   465  2181    1
   696   466  2182    1
   697   466  2183    1
   698   467  2184    1
   699   467  2185    1
   700   467  2186    1
   701   467  2187    1
   702   468   469    1
   703   468   471    1
   704   468  2188    1
   705   469  2189    1
   706   469  2190    1
   707   469  2191    1
   708   470   472    1
   709   470  2192    1
   710   470  2193    1
   711   470  2194    1
   712   471   474    1
   713   471  2195    1
   714   471  2196    1
   715   472  2197    1
   716   473  2198    1
   717   474  2199    1
   718   474  2200    1
   719   474  2201    1
   720   475   699    2
   721   475  2202    1
   722   475  2203    1
   723   476  2204    1
   724   476  2205    1
   725   476  2206    1
   726   476  2207    1
   727   477  1374    1
   728   477  2208    1
   729   478  1551    1
   730   478  2209    1
   731   478  2210    1
   732   478  2211    1
   733   479  2212    1
   734   479  2213    1
   735   479  2214    1
   736   480  1180    1
   737   480  1300    1
   738   480  1020    1
   739   481   484    1
   740   481  1308    2
   741   481  2215    1
   742   482  2216    1
   743   482  2217    1
   744   482  2218    1
   745   482  2219    1
   746   483  2220    1
   747   483  2221    1
   748   483  2222    1
   749   483  2223    1
   750   484   491    1
   751   484  2224    1
   752   484  2225    1
   753   485   492    1
   754   485   496    1
   755   485  2226    1
   756   485  2227    1
   757   486  1034    1
   758   486   493    1
   759   486  2228    1
   760   486  2229    1
   761   487  1028    1
   762   487  2230    1
   763   487  2231    1
   764   487  2232    1
   765   488   489    1
   766   488  2233    1
   767   488  2234    1
   768   489  1035    1
   769   489   492    1
   770   490  1036    1
   771   490  2235    1
   772   490  2236    1
   773   490  2237    1
   774   491  2238    1
   775   491  2239    1
   776   491  2240    1
   777   492  2241    1
   778   492  2242    1
   779   493  2243    1
   780   493  2244    1
   781   493  2245    1
   782   494  1197    1
   783   494  2246    1
   784   494  2247    1
   785   494  2248    1
   786   495  2249    1
   787   495  2250    1
   788   495  2251    1
   789   495  2252    1
   790   496   497    1
   791   496   498    1
   792   496  2253    1
   793   497  1039    1
   794   497  2254    1
   795   497  2255    1
   796   498  2256    1
   797   498  2257    1
   798   498  2258    1
   799   499  2259    1
   800   499  2260    1
   801   499  2261    1
   802   499  2262    1
   803   501   509    1
   804   502  2263    1
   805   506  2264    1
   806   507  2265    1
   807   508  2266    1
   808   510   514    1
   809   512  2267    1
   810   513  2268    1
   811   515  2269    1
   812   516   519    1
   813   517  2270    1
   814   518  2271    1
   815   520  1280    1
   816   521  1298    1
   817   522  2272    1
   818   523  1292    1
   819   524  2273    1
   820   525  2274    1
   821   526  2275    1
   822   527  2276    1
   823   528  2277    1
   824   529  2278    1
   825   530  2279    1
   826   531  2280    1
   827   532  2281    1
   828   533  2282    1
   829   534  2283    1
   830   535  1299    1
   831   536  2284    1
   832   537  2285    1
   833   538  2286    1
   834   539  2287    1
   835   540   860    1
   836   541   544    1
   837   541  2288    1
   838   542   874    1
   839   542  2289    1
   840   544   556    1
   841   545  2290    1
   842   545  2291    1
   843   546   549    2
   844   547   874    1
   845   547  2292    1
   846   548   551    2
   847   550   552    1
   848   550  2293    1
   849   552   557    1
   850   553  2294    1
   851   553  2295    1
   852   554   558    1
   853   555   870    2
   854   556   559    1
   855   557  2296    1
   856   558  2297    1
   857   559  2298    1
   858   560  1678    1
   859   560  1420    1
   860   561  2299    1
   861   561  2300    1
   862   562   618    1
   863   562   570    1
   864   563   566    2
   865   564   569    1
   866   564   576    1
   867   565   567    1
   868   565  2301    1
   869   567   575    1
   870   568   573    1
   871   568  2302    1
   872   569   575    1
   873   570  2303    1
   874   571   574    1
   875   571  2304    1
   876   572   576    1
   877   572  2305    1
   878   573  1427    1
   879   574  1435    1
   880   577   578    1
   881   577  2306    1
   882   580  1220    1
   883   580   760    1
   884   581  2307    1
   885   581  2308    1
   886   581  2309    1
   887   581  2310    1
   888   582  2311    1
   889   582  2312    1
   890   582  2313    1
   891   582  2314    1
   892   583   586    1
   893   583   587    1
   894   583   592    1
   895   583   599    1
   896   584   585    1
   897   584  2315    1
   898   584  2316    1
   899   584  2317    1
   900   585   597    1
   901   585  2318    1
   902   585  2319    1
   903   586   593    1
   904   586  2320    1
   905   586  2321    1
   906   587   599    1
   907   587  2322    1
   908   587  2323    1
   909   588   598    1
   910   588  2324    1
   911   588  2325    1
   912   588  2326    1
   913   589  2327    1
   914   589  2328    1
   915   589  2329    1
   916   589  2330    1
   917   590  2331    1
   918   590  2332    1
   919   590  2333    1
   920   590  2334    1
   921   591   596    3
   922   591  2335    1
   923   592   599    1
   924   592  2336    1
   925   592  2337    1
   926   593  2338    1
   927   593  2339    1
   928   593  2340    1
   929   594   598    1
   930   594  2341    1
   931   594  2342    1
   932   594  2343    1
   933   595  2344    1
   934   595  2345    1
   935   595  2346    1
   936   596  2347    1
   937   597  2348    1
   938   597  2349    1
   939   597  2350    1
   940   598   761    1
   941   598  2351    1
   942   599  2352    1
   943   600  1678    1
   944   600   603    1
   945   601   614    1
   946   601   605    1
   947   603   611    1
   948   604   615    1
   949   605   607    1
   950   606   615    1
   951   606   608    1
   952   609   612    2
   953   610  1688    2
   954   613  1680    2
   955   614  1693    1
   956   616  1537    1
   957   618  1688    1
   958   620   940    1
   959   621  2353    1
   960   622  2354    1
   961   623  2355    1
   962   624   943    1
   963   625  2356    1
   964   626  2357    1
   965   627   943    1
   966   628  2358    1
   967   629  2359    1
   968   630  2360    1
   969   631   943    1
   970   632  2361    1
   971   633  2362    1
   972   634  2363    1
   973   635  2364    1
   974   636  2365    1
   975   637  2366    1
   976   638  2367    1
   977   639   958    1
   978   640  1120    1
   979   640   960    1
   980   641   646    1
   981   641   644    1
   982   642  1135    1
   983   642  2368    1
   984   643   973    2
   985   644   646    1
   986   645   967    2
   987   647  1135    1
   988   647  2369    1
   989   648  1136    1
   990   648   650    1
   991   649   650    1
   992   649   654    1
   993   651   652    1
   994   651  2370    1
   995   652   653    1
   996   653  2371    1
   997   654  1699    1
   998   655   656    1
   999   655   967    1
  1000   656  2372    1
  1001   657  2373    1
  1002   657  2374    1
  1003   658   659    1
  1004   660  1140    1
  1005   660  1260    1
  1006   660  1658    1
  1007   662   663    1
  1008   663   676    1
  1009   664   667    1
  1010   664   679    1
  1011   664   668    1
  1012   666   671    2
  1013   666   676    1
  1014   668   669    1
  1015   672   678    1
  1016   673   678    1
  1017   673   674    1
  1018   675   676    1
  1019   677  1273    1
  1020   677   678    1
  1021   679  1269    1
  1022   680  1120    1
  1023   680  1300    1
  1024   680  1360    1
  1025   681  1371    1
  1026   681  2375    1
  1027   681  2376    1
  1028   681  2377    1
  1029   682   690    1
  1030   682  2378    1
  1031   682  2379    1
  1032   682  2380    1
  1033   683  1128    3
  1034   683  2381    1
  1035   684   686    1
  1036   684  1372    1
  1037   684  2382    1
  1038   684  2383    1
  1039   685   689    1
  1040   685   691    1
  1041   685  1362    1
  1042   685  2384    1
  1043   686  1318    1
  1044   686  2385    1
  1045   686  2386    1
  1046   687   689    1
  1047   687  2387    1
  1048   687  2388    1
  1049   687  2389    1
  1050   688   692    1
  1051   688  2390    1
  1052   688  2391    1
  1053   688  2392    1
  1054   689   690    1
  1055   689  2393    1
  1056   690  2394    1
  1057   690  2395    1
  1058   691  2396    1
  1059   691  2397    1
  1060   691  2398    1
  1061   692  1314    2
  1062   692   693    1
  1063   693  2399    1
  1064   693  2400    1
  1065   693  2401    1
  1066   694  2402    1
  1067   694  2403    1
  1068   694  2404    1
  1069   695  1370    1
  1070   695  2405    1
  1071   695  2406    1
  1072   695  2407    1
  1073   696  2408    1
  1074   696  2409    1
  1075   696  2410    1
  1076   696  2411    1
  1077   697  1373    1
  1078   697  2412    1
  1079   697  2413    1
  1080   697  2414    1
  1081   698  2415    1
  1082   698  2416    1
  1083   699  1546    1
  1084   699  2417    1
  1085   700  1320    1
  1086   701   707    2
  1087   702  2418    1
  1088   702  2419    1
  1089   703   712    1
  1090   703   714    1
  1091   704  2420    1
  1092   704  2421    1
  1093   705  2422    1
  1094   705  2423    1
  1095   706   711    1
  1096   706  2424    1
  1097   708   718    1
  1098   708  2425    1
  1099   709  2426    1
  1100   709  2427    1
  1101   710   719    1
  1102   710  2428    1
  1103   711  1329    1
  1104   712  2429    1
  1105   713   716    1
  1106   713  2430    1
  1107   714   718    1
  1108   715   719    1
  1109   715  2431    1
  1110   716   717    1
  1111   717  2432    1
  1112   720  1220    1
  1113   721  2433    1
  1114   722  2434    1
  1115   723  2435    1
  1116   724  2436    1
  1117   725  2437    1
  1118   726  2438    1
  1119   727  2439    1
  1120   728  2440    1
  1121   729  2441    1
  1122   730  1231    1
  1123   731  2442    1
  1124   732  1221    1
  1125   733  2443    1
  1126   734  1233    1
  1127   735  2444    1
  1128   736  2445    1
  1129   737  1235    1
  1130   738  2446    1
  1131   739  1236    1
  1132   740   960    1
  1133   743   750    1
  1134   745   963    1
  1135   745   759    1
  1136   747   849    1
  1137   747   972    1
  1138   748   974    1
  1139   748   749    1
  1140   749   750    1
  1141   752   754    2
  1142   753   850    1
  1143   755   757    1
  1144   756   757    1
  1145   759   963    1
  1146   762  2447    1
  1147   763  2448    1
  1148   764  2449    1
  1149   765  2450    1
  1150   766  2451    1
  1151   767  2452    1
  1152   768   772    1
  1153   769   774    1
  1154   770  2453    1
  1155   771  2454    1
  1156   773  2455    1
  1157   775  2456    1
  1158   776  2457    1
  1159   777  2458    1
  1160   778   779    1
  1161   780  1180    1
  1162   780  1060    1
  1163   780  1559    1
  1164   781  1569    1
  1165   781  1572    1
  1166   781  2459    1
  1167   781  2460    1
  1168   782   788    1
  1169   782   785    1
  1170   782  2461    1
  1171   782  2462    1
  1172   783   797    1
  1173   783  2463    1
  1174   783  2464    1
  1175   783  2465    1
  1176   784   790    1
  1177   784  2466    1
  1178   784  2467    1
  1179   784  2468    1
  1180   785   786    1
  1181   785   797    1
  1182   785  2469    1
  1183   786   790    1
  1184   786  2470    1
  1185   786  2471    1
  1186   787  1199    1
  1187   787  2472    1
  1188   787  2473    1
  1189   787  2474    1
  1190   788  2475    1
  1191   788  2476    1
  1192   788  2477    1
  1193   789  2478    1
  1194   789  2479    1
  1195   789  2480    1
  1196   789  2481    1
  1197   790  2482    1
  1198   790  2483    1
  1199   791  2484    1
  1200   791  2485    1
  1201   791  2486    1
  1202   791  2487    1
  1203   792  2488    1
  1204   792  2489    1
  1205   792  2490    1
  1206   792  2491    1
  1207   793  2492    1
  1208   793  2493    1
  1209   793  2494    1
  1210   793  2495    1
  1211   794  1070    1
  1212   794  2496    1
  1213   794  2497    1
  1214   794  2498    1
  1215   795  1576    1
  1216   795  2499    1
  1217   795  2500    1
  1218   795  2501    1
  1219   796   797    1
  1220   796  2502    1
  1221   796  2503    1
  1222   796  2504    1
  1223   797  2505    1
  1224   798  1077    1
  1225   798  1075    1
  1226   798  2506    1
  1227   798  2507    1
  1228   799  1570    1
  1229   799  2508    1
  1230   799  2509    1
  1231   799  2510    1
  1232   800  1000    1
  1233   800  1717    1
  1234   801  1719    1
  1235   801  2511    1
  1236   801  2512    1
  1237   802  2513    1
  1238   802  2514    1
  1239   802  2515    1
  1240   802  2516    1
  1241   803  1731    1
  1242   803   808    1
  1243   803  2517    1
  1244   803  2518    1
  1245   804  2519    1
  1246   804  2520    1
  1247   804  2521    1
  1248   804  2522    1
  1249   805   812    1
  1250   805  2523    1
  1251   805  2524    1
  1252   805  2525    1
  1253   806  1727    1
  1254   806   818    1
  1255   806  2526    1
  1256   806  2527    1
  1257   807  1723    1
  1258   807   809    1
  1259   807  1733    1
  1260   807  2528    1
  1261   808   818    1
  1262   808  2529    1
  1263   808  2530    1
  1264   809  2531    1
  1265   809  2532    1
  1266   809  2533    1
  1267   810  2534    1
  1268   810  2535    1
  1269   810  2536    1
  1270   811   812    1
  1271   811   813    1
  1272   811  2537    1
  1273   811  2538    1
  1274   812  1015    1
  1275   812  2539    1
  1276   813  2540    1
  1277   813  2541    1
  1278   813  2542    1
  1279   814   819    2
  1280   814  2543    1
  1281   814  2544    1
  1282   815  2545    1
  1283   815  2546    1
  1284   816  2547    1
  1285   816  2548    1
  1286   816  2549    1
  1287   816  2550    1
  1288   817  2551    1
  1289   817  2552    1
  1290   817  2553    1
  1291   818  2554    1
  1292   818  2555    1
  1293   819  1735    1
  1294   819  2556    1
  1295   820  1200    1
  1296   821   827    1
  1297   821   828    1
  1298   823   833    1
  1299   824   839    2
  1300   825   829    1
  1301   826   829    1
  1302   830  1210    2
  1303   831  1461    1
  1304   832  1207    2
  1305   833   838    1
  1306   836  1201    1
  1307   837  1207    1
  1308   840   960    1
  1309   840   846    1
  1310   842   977    1
  1311   842   853    1
  1312   844   845    2
  1313   846   847    1
  1314   848   976    1
  1315   848   977    1
  1316   850   971    1
  1317   851   852    2
  1318   855   857    1
  1319   856   857    1
  1320   858   962    1
  1321   858   859    1
  1322   859   967    1
  1323   860   920    1
  1324   860  1080    1
  1325   861   877    1
  1326   861   863    1
  1327   861  2557    1
  1328   861  2558    1
  1329   862  2559    1
  1330   862  2560    1
  1331   862  2561    1
  1332   862  2562    1
  1333   863   873    1
  1334   863  2563    1
  1335   863  2564    1
  1336   864   876    1
  1337   864  2565    1
  1338   864  2566    1
  1339   864  2567    1
  1340   865   871    1
  1341   865   872    1
  1342   865  2568    1
  1343   865  2569    1
  1344   866   876    1
  1345   866  2570    1
  1346   866  2571    1
  1347   867  2572    1
  1348   867  2573    1
  1349   867  2574    1
  1350   867  2575    1
  1351   868   879    3
  1352   868  2576    1
  1353   869   877    2
  1354   869  2577    1
  1355   869  2578    1
  1356   870  2579    1
  1357   871  2580    1
  1358   871  2581    1
  1359   871  2582    1
  1360   872   878    1
  1361   872  2583    1
  1362   873   878    1
  1363   873   874    1
  1364   873  2584    1
  1365   874   878    1
  1366   875  2585    1
  1367   875  2586    1
  1368   875  2587    1
  1369   875  2588    1
  1370   876  2589    1
  1371   876  2590    1
  1372   877  2591    1
  1373   878  2592    1
  1374   879  2593    1
  1375   880  1080    1
  1376   880  1200    1
  1377   881  2594    1
  1378   881  2595    1
  1379   882  1218    2
  1380   883   899    1
  1381   883  2596    1
  1382   884  2597    1
  1383   884  2598    1
  1384   885   889    1
  1385   885  2599    1
  1386   886   892    2
  1387   887  2600    1
  1388   887  2601    1
  1389   888   896    1
  1390   888   893    1
  1391   889   895    1
  1392   890  2602    1
  1393   890  2603    1
  1394   891  2604    1
  1395   891  2605    1
  1396   893   896    1
  1397   894  1085    2
  1398   895  2606    1
  1399   897  2607    1
  1400   897  2608    1
  1401   898   899    1
  1402   898  1086    1
  1403   901  2609    1
  1404   902  2610    1
  1405   903  2611    1
  1406   904  2612    1
  1407   905  2613    1
  1408   906  2614    1
  1409   909  2615    1
  1410   910  2616    1
  1411   911  2617    1
  1412   913  2618    1
  1413   915  2619    1
  1414   916  2620    1
  1415   917  2621    1
  1416   918   919    1
  1417   920  1280    1
  1418   921   935    1
  1419   921   923    1
  1420   922   923    1
  1421   922  2622    1
  1422   924   937    1
  1423   924  2623    1
  1424   925   927    1
  1425   925   929    1
  1426   926   932    2
  1427   927  2624    1
  1428   928   939    1
  1429   928  2625    1
  1430   929   930    1
  1431   930  2626    1
  1432   931   936    1
  1433   931   933    1
  1434   933  2627    1
  1435   934   938    2
  1436   935  2628    1
  1437   936  2629    1
  1438   937   939    1
  1439   940  1240    1
  1440   941   943    1
  1441   941   957    1
  1442   941  2630    1
  1443   941  2631    1
  1444   942   946    1
  1445   942   953    1
  1446   942  2632    1
  1447   942  2633    1
  1448   944   945    1
  1449   944   956    1
  1450   944  2634    1
  1451   944  2635    1
  1452   945   952    1
  1453   945  2636    1
  1454   945  2637    1
  1455   946  1258    1
  1456   946  2638    1
  1457   946  2639    1
  1458   947  1257    1
  1459   947   950    1
  1460   947   955    1
  1461   948   950    1
  1462   948   951    1
  1463   948  2640    1
  1464   948  2641    1
  1465   949  1259    3
  1466   949  2642    1
  1467   950  1254    1
  1468   951  2643    1
  1469   951  2644    1
  1470   951  2645    1
  1471   952  2646    1
  1472   952  2647    1
  1473   953  2648    1
  1474   953  2649    1
  1475   953  2650    1
  1476   954   958    1
  1477   954  2651    1
  1478   954  2652    1
  1479   955  2653    1
  1480   955  2654    1
  1481   956   957    1
  1482   956   958    1
  1483   956   959    1
  1484   957  2655    1
  1485   957  2656    1
  1486   958   959    1
  1487   959  2657    1
  1488   959  2658    1
  1489   961   964    3
  1490   962   975    1
  1491   965   979    3
  1492   968   973    1
  1493   968   969    1
  1494   970   974    1
  1495   972   973    1
  1496   976   977    1
  1497   980  1180    1
  1498   980  1757    1
  1499   981   983    1
  1500   981  2659    1
  1501   981  2660    1
  1502   982   989    2
  1503   982   985    1
  1504   983   984    1
  1505   983  2661    1
  1506   984   990    1
  1507   984  2662    1
  1508   985   998    1
  1509   985  2663    1
  1510   986  2664    1
  1511   986  2665    1
  1512   986  2666    1
  1513   987   992    1
  1514   987   988    1
  1515   989  2667    1
  1516   990   994    1
  1517   990   999    1
  1518   991  2668    1
  1519   991  2669    1
  1520   991  2670    1
  1521   992   993    2
  1522   993  2671    1
  1523   994  2672    1
  1524   994  2673    1
  1525   995  2674    1
  1526   995  2675    1
  1527   996  1188    1
  1528   996   999    1
  1529   996  2676    1
  1530   997  1187    1
  1531   997  1188    1
  1532   997   998    1
  1533   998  2677    1
  1534   999  2678    1
  1535  1001  2679    1
  1536  1001  2680    1
  1537  1002  1005    1
  1538  1002  1004    1
  1539  1003  1008    1
  1540  1003  1009    1
  1541  1004  1019    1
  1542  1005  2681    1
  1543  1006  1017    1
  1544  1006  1016    1
  1545  1007  2682    1
  1546  1007  2683    1
  1547  1008  1012    1
  1548  1009  2684    1
  1549  1010  1014    1
  1550  1010  1013    1
  1551  1011  1018    1
  1552  1011  1019    1
  1553  1012  2685    1
  1554  1013  1014    1
  1555  1015  2686    1
  1556  1016  1017    1
  1557  1018  2687    1
  1558  1021  2688    1
  1559  1022  2689    1
  1560  1023  2690    1
  1561  1024  2691    1
  1562  1025  2692    1
  1563  1026  2693    1
  1564  1027  2694    1
  1565  1029  2695    1
  1566  1030  2696    1
  1567  1031  2697    1
  1568  1032  2698    1
  1569  1033  2699    1
  1570  1037  2700    1
  1571  1038  1307    1
  1572  1041  2701    1
  1573  1042  2702    1
  1574  1043  2703    1
  1575  1044  2704    1
  1576  1045  2705    1
  1577  1046  2706    1
  1578  1047  2707    1
  1579  1048  2708    1
  1580  1049  2709    1
  1581  1050  2710    1
  1582  1053  2711    1
  1583  1055  2712    1
  1584  1056  2713    1
  1585  1057  2714    1
  1586  1058  2715    1
  1587  1059  2716    1
  1588  1060  1499    1
  1589  1061  1065    2
  1590  1062  1071    2
  1591  1063  2717    1
  1592  1063  2718    1
  1593  1064  1504    1
  1594  1064  1067    1
  1595  1066  1502    1
  1596  1066  2719    1
  1597  1067  1068    1
  1598  1068  2720    1
  1599  1069  2721    1
  1600  1069  2722    1
  1601  1070  1516    1
  1602  1072  1079    1
  1603  1072  2723    1
  1604  1073  1078    1
  1605  1073  2724    1
  1606  1074  2725    1
  1607  1074  2726    1
  1608  1075  1573    1
  1609  1076  1077    1
  1610  1076  2727    1
  1611  1078  1506    1
  1612  1079  1503    1
  1613  1080  1240    1
  1614  1080  1340    1
  1615  1081  1356    1
  1616  1081  1097    1
  1617  1081  2728    1
  1618  1081  2729    1
  1619  1082  1351    1
  1620  1082  2730    1
  1621  1082  2731    1
  1622  1082  2732    1
  1623  1083  1084    1
  1624  1083  2733    1
  1625  1083  2734    1
  1626  1083  2735    1
  1627  1084  1346    1
  1628  1084  1091    1
  1629  1084  2736    1
  1630  1085  1096    1
  1631  1085  2737    1
  1632  1086  2738    1
  1633  1086  2739    1
  1634  1086  2740    1
  1635  1087  1349    1
  1636  1087  2741    1
  1637  1087  2742    1
  1638  1087  2743    1
  1639  1088  1096    1
  1640  1088  1098    1
  1641  1088  1099    1
  1642  1088  2744    1
  1643  1089  1350    1
  1644  1089  2745    1
  1645  1089  2746    1
  1646  1089  2747    1
  1647  1090  1092    2
  1648  1090  2748    1
  1649  1090  2749    1
  1650  1091  1093    1
  1651  1091  2750    1
  1652  1091  2751    1
  1653  1092  1255    1
  1654  1092  2752    1
  1655  1093  1097    1
  1656  1093  1255    1
  1657  1093  2753    1
  1658  1094  1255    1
  1659  1094  1098    1
  1660  1094  2754    1
  1661  1094  2755    1
  1662  1095  1352    1
  1663  1095  2756    1
  1664  1095  2757    1
  1665  1095  2758    1
  1666  1096  1099    1
  1667  1096  2759    1
  1668  1097  2760    1
  1669  1097  2761    1
  1670  1098  1359    1
  1671  1098  1099    1
  1672  1099  2762    1
  1673  1100  1108    1
  1674  1101  1105    1
  1675  1101  1102    1
  1676  1102  1107    1
  1677  1104  1111    1
  1678  1106  1109    1
  1679  1106  1112    1
  1680  1107  2763    1
  1681  1108  1111    1
  1682  1109  2764    1
  1683  1110  1113    1
  1684  1110  2765    1
  1685  1112  1116    1
  1686  1114  2766    1
  1687  1114  2767    1
  1688  1115  1117    1
  1689  1115  1119    1
  1690  1116  1118    1
  1691  1117  2768    1
  1692  1118  1119    1
  1693  1120  1698    1
  1694  1120  1380    1
  1695  1121  1137    1
  1696  1121  2769    1
  1697  1121  2770    1
  1698  1121  2771    1
  1699  1122  1123    2
  1700  1122  2772    1
  1701  1122  2773    1
  1702  1123  1396    1
  1703  1123  2774    1
  1704  1124  2775    1
  1705  1124  2776    1
  1706  1124  2777    1
  1707  1124  2778    1
  1708  1125  1126    1
  1709  1125  1136    1
  1710  1125  2779    1
  1711  1125  2780    1
  1712  1126  1129    1
  1713  1126  1137    1
  1714  1126  2781    1
  1715  1127  1388    1
  1716  1127  1130    1
  1717  1127  1129    1
  1718  1127  2782    1
  1719  1128  2783    1
  1720  1129  2784    1
  1721  1129  2785    1
  1722  1130  1385    1
  1723  1130  1135    1
  1724  1130  2786    1
  1725  1131  1132    1
  1726  1131  1133    1
  1727  1131  1705    1
  1728  1131  2787    1
  1729  1132  1707    1
  1730  1132  1133    1
  1731  1132  1384    1
  1732  1133  1382    1
  1733  1133  2788    1
  1734  1134  1709    1
  1735  1134  1703    1
  1736  1134  2789    1
  1737  1134  2790    1
  1738  1135  1389    1
  1739  1136  2791    1
  1740  1136  2792    1
  1741  1137  1713    1
  1742  1137  2793    1
  1743  1138  1702    1
  1744  1138  2794    1
  1745  1138  2795    1
  1746  1138  2796    1
  1747  1139  2797    1
  1748  1139  2798    1
  1749  1139  2799    1
  1750  1139  2800    1
  1751  1141  1158    1
  1752  1142  1152    1
  1753  1143  1665    1
  1754  1143  1154    1
  1755  1144  1158    1
  1756  1144  1148    1
  1757  1145  1156    2
  1758  1146  1155    2
  1759  1148  1152    1
  1760  1150  1159    2
  1761  1151  1153    1
  1762  1153  1154    1
  1763  1160  1400    1
  1764  1161  2801    1
  1765  1162  2802    1
  1766  1163  2803    1
  1767  1164  2804    1
  1768  1165  2805    1
  1769  1166  2806    1
  1770  1167  2807    1
  1771  1168  2808    1
  1772  1169  2809    1
  1773  1170  1414    1
  1774  1171  2810    1
  1775  1172  2811    1
  1776  1173  2812    1
  1777  1174  2813    1
  1778  1175  1407    1
  1779  1176  2814    1
  1780  1177  2815    1
  1781  1178  2816    1
  1782  1179  1418    1
  1783  1180  1480    1
  1784  1181  1196    1
  1785  1181  2817    1
  1786  1181  2818    1
  1787  1181  2819    1
  1788  1182  1193    3
  1789  1182  2820    1
  1790  1183  1184    1
  1791  1183  1186    1
  1792  1183  1197    1
  1793  1183  2821    1
  1794  1184  1189    1
  1795  1184  1192    1
  1796  1185  1190    1
  1797  1185  1197    1
  1798  1185  2822    1
  1799  1185  2823    1
  1800  1186  1498    1
  1801  1186  2824    1
  1802  1186  2825    1
  1803  1187  1188    1
  1804  1187  2826    1
  1805  1187  2827    1
  1806  1188  2828    1
  1807  1189  2829    1
  1808  1189  2830    1
  1809  1189  2831    1
  1810  1190  1494    1
  1811  1190  2832    1
  1812  1190  2833    1
  1813  1191  1194    1
  1814  1191  2834    1
  1815  1191  2835    1
  1816  1191  2836    1
  1817  1192  2837    1
  1818  1192  2838    1
  1819  1193  2839    1
  1820  1194  1199    1
  1821  1194  2840    1
  1822  1194  2841    1
  1823  1195  2842    1
  1824  1195  2843    1
  1825  1195  2844    1
  1826  1195  2845    1
  1827  1196  1199    1
  1828  1196  2846    1
  1829  1196  2847    1
  1830  1197  2848    1
  1831  1198  2849    1
  1832  1198  2850    1
  1833  1198  2851    1
  1834  1198  2852    1
  1835  1199  2853    1
  1836  1200  1460    1
  1837  1200  1219    1
  1838  1202  1464    1
  1839  1202  1461    1
  1840  1203  1219    1
  1841  1204  1208    3
  1842  1206  1209    2
  1843  1210  1475    2
  1844  1210  1470    2
  1845  1211  1217    1
  1846  1213  1217    1
  1847  1213  1219    1
  1848  1214  1219    1
  1849  1216  1218    1
  1850  1220  1400    1
  1851  1220  1280    1
  1852  1221  1222    1
  1853  1221  1227    1
  1854  1221  1223    1
  1855  1222  2854    1
  1856  1222  2855    1
  1857  1222  2856    1
  1858  1223  1225    1
  1859  1223  1230    1
  1860  1223  2857    1
  1861  1224  1231    1
  1862  1224  1233    1
  1863  1224  2858    1
  1864  1224  2859    1
  1865  1225  1227    1
  1866  1225  2860    1
  1867  1225  2861    1
  1868  1226  1232    1
  1869  1226  2862    1
  1870  1226  2863    1
  1871  1226  2864    1
  1872  1227  1237    1
  1873  1227  2865    1
  1874  1228  1229    1
  1875  1228  1232    1
  1876  1228  2866    1
  1877  1228  2867    1
  1878  1229  1232    1
  1879  1229  2868    1
  1880  1229  2869    1
  1881  1230  1237    1
  1882  1230  2870    1
  1883  1230  2871    1
  1884  1231  1233    1
  1885  1231  2872    1
  1886  1232  1239    1
  1887  1233  2873    1
  1888  1234  1415    2
  1889  1234  2874    1
  1890  1234  2875    1
  1891  1235  2876    1
  1892  1235  2877    1
  1893  1235  2878    1
  1894  1236  1237    1
  1895  1236  1238    1
  1896  1236  2879    1
  1897  1237  1239    1
  1898  1238  2880    1
  1899  1238  2881    1
  1900  1238  2882    1
  1901  1239  2883    1
  1902  1239  2884    1
  1903  1240  1579    1
  1904  1241  1253    1
  1905  1241  1248    1
  1906  1241  2885    1
  1907  1241  2886    1
  1908  1242  1595    1
  1909  1242  1243    1
  1910  1242  1244    1
  1911  1242  2887    1
  1912  1243  1257    1
  1913  1243  2888    1
  1914  1243  2889    1
  1915  1244  1251    1
  1916  1244  2890    1
  1917  1244  2891    1
  1918  1245  2892    1
  1919  1245  2893    1
  1920  1246  1250    1
  1921  1246  2894    1
  1922  1246  2895    1
  1923  1247  1249    2
  1924  1247  2896    1
  1925  1247  2897    1
  1926  1248  1256    1
  1927  1248  2898    1
  1928  1248  2899    1
  1929  1249  1250    1
  1930  1249  2900    1
  1931  1250  1256    1
  1932  1250  2901    1
  1933  1251  1253    1
  1934  1251  1252    1
  1935  1252  2902    1
  1936  1252  2903    1
  1937  1252  2904    1
  1938  1253  2905    1
  1939  1253  2906    1
  1940  1254  2907    1
  1941  1254  2908    1
  1942  1255  2909    1
  1943  1256  2910    1
  1944  1256  2911    1
  1945  1257  2912    1
  1946  1257  2913    1
  1947  1258  2914    1
  1948  1258  2915    1
  1949  1258  2916    1
  1950  1259  2917    1
  1951  1261  1266    2
  1952  1262  1271    1
  1953  1262  1263    1
  1954  1264  1268    1
  1955  1265  1277    1
  1956  1265  1279    1
  1957  1267  1274    1
  1958  1267  1268    1
  1959  1269  1273    1
  1960  1271  1272    1
  1961  1275  1276    2
  1962  1277  1279    1
  1963  1280  1320    1
  1964  1281  1286    1
  1965  1281  2918    1
  1966  1281  2919    1
  1967  1281  2920    1
  1968  1282  2921    1
  1969  1282  2922    1
  1970  1282  2923    1
  1971  1282  2924    1
  1972  1283  1291    3
  1973  1283  2925    1
  1974  1284  1285    1
  1975  1284  1288    1
  1976  1284  2926    1
  1977  1284  2927    1
  1978  1285  1287    1
  1979  1285  2928    1
  1980  1285  2929    1
  1981  1286  1290    1
  1982  1286  2930    1
  1983  1286  2931    1
  1984  1287  1333    2
  1985  1287  2932    1
  1986  1288  1292    1
  1987  1288  2933    1
  1988  1288  2934    1
  1989  1289  1296    1
  1990  1289  2935    1
  1991  1289  2936    1
  1992  1289  2937    1
  1993  1290  2938    1
  1994  1290  2939    1
  1995  1290  2940    1
  1996  1291  2941    1
  1997  1292  1294    1
  1998  1292  2942    1
  1999  1293  1294    1
  2000  1293  2943    1
  2001  1293  2944    1
  2002  1293  2945    1
  2003  1294  1296    1
  2004  1294  2946    1
  2005  1295  2947    1
  2006  1295  2948    1
  2007  1295  2949    1
  2008  1295  2950    1
  2009  1296  1298    1
  2010  1296  2951    1
  2011  1297  2952    1
  2012  1297  2953    1
  2013  1297  2954    1
  2014  1297  2955    1
  2015  1298  1299    1
  2016  1298  2956    1
  2017  1299  2957    1
  2018  1299  2958    1
  2019  1301  1311    1
  2020  1301  1304    1
  2021  1302  1310    2
  2022  1303  2959    1
  2023  1303  2960    1
  2024  1304  1312    1
  2025  1305  1317    1
  2026  1305  2961    1
  2027  1306  1309    1
  2028  1306  1311    1
  2029  1307  1309    1
  2030  1312  2962    1
  2031  1313  2963    1
  2032  1313  2964    1
  2033  1315  1317    1
  2034  1315  2965    1
  2035  1316  2966    1
  2036  1316  2967    1
  2037  1318  2968    1
  2038  1319  1368    1
  2039  1319  2969    1
  2040  1320  1420    1
  2041  1321  2970    1
  2042  1321  2971    1
  2043  1321  2972    1
  2044  1321  2973    1
  2045  1322  1323    1
  2046  1322  2974    1
  2047  1322  2975    1
  2048  1323  2976    1
  2049  1323  2977    1
  2050  1323  2978    1
  2051  1324  2979    1
  2052  1324  2980    1
  2053  1324  2981    1
  2054  1324  2982    1
  2055  1325  1327    2
  2056  1325  1332    1
  2057  1325  2983    1
  2058  1326  1339    1
  2059  1326  2984    1
  2060  1326  2985    1
  2061  1326  2986    1
  2062  1327  2987    1
  2063  1327  2988    1
  2064  1328  1332    1
  2065  1328  2989    1
  2066  1328  2990    1
  2067  1328  2991    1
  2068  1329  2992    1
  2069  1329  2993    1
  2070  1329  2994    1
  2071  1330  2995    1
  2072  1330  2996    1
  2073  1330  2997    1
  2074  1330  2998    1
  2075  1331  2999    1
  2076  1331  3000    1
  2077  1331  3001    1
  2078  1331  3002    1
  2079  1332  1337    1
  2080  1332  1334    1
  2081  1333  3003    1
  2082  1333  3004    1
  2083  1334  3005    1
  2084  1334  3006    1
  2085  1334  3007    1
  2086  1335  1339    1
  2087  1335  3008    1
  2088  1335  3009    1
  2089  1336  1338    3
  2090  1336  3010    1
  2091  1337  3011    1
  2092  1337  3012    1
  2093  1337  3013    1
  2094  1338  3014    1
  2095  1339  3015    1
  2096  1339  3016    1
  2097  1341  3017    1
  2098  1342  3018    1
  2099  1343  3019    1
  2100  1344  3020    1
  2101  1345  3021    1
  2102  1347  3022    1
  2103  1348  3023    1
  2104  1353  3024    1
  2105  1354  3025    1
  2106  1355  3026    1
  2107  1357  3027    1
  2108  1358  3028    1
  2109  1361  1364    1
  2110  1363  3029    1
  2111  1365  1377    1
  2112  1366  1376    1
  2113  1367  3030    1
  2114  1369  3031    1
  2115  1378  3032    1
  2116  1379  3033    1
  2117  1381  3034    1
  2118  1383  3035    1
  2119  1386  3036    1
  2120  1387  3037    1
  2121  1390  1395    1
  2122  1391  3038    1
  2123  1392  3039    1
  2124  1393  3040    1
  2125  1394  3041    1
  2126  1397  3042    1
  2127  1398  3043    1
  2128  1399  3044    1
  2129  1401  1411    1
  2130  1401  3045    1
  2131  1402  1407    1
  2132  1402  3046    1
  2133  1403  1412    1
  2134  1403  3047    1
  2135  1404  1405    1
  2136  1404  3048    1
  2137  1405  1417    1
  2138  1406  1409    1
  2139  1406  3049    1
  2140  1408  1413    1
  2141  1408  3050    1
  2142  1409  1416    1
  2143  1410  1412    1
  2144  1410  1414    1
  2145  1411  1413    1
  2146  1416  3051    1
  2147  1417  3052    1
  2148  1418  1419    1
  2149  1419  3053    1
  2150  1420  1618    1
  2151  1421  1428    3
  2152  1421  3054    1
  2153  1422  1633    1
  2154  1422  1625    1
  2155  1422  3055    1
  2156  1422  3056    1
  2157  1423  1432    1
  2158  1423  1434    1
  2159  1423  3057    1
  2160  1423  3058    1
  2161  1424  1431    1
  2162  1424  1430    1
  2163  1424  1426    1
  2164  1424  3059    1
  2165  1425  1427    1
  2166  1425  3060    1
  2167  1425  3061    1
  2168  1425  3062    1
  2169  1426  1437    1
  2170  1426  3063    1
  2171  1426  3064    1
  2172  1427  3065    1
  2173  1427  3066    1
  2174  1428  3067    1
  2175  1429  3068    1
  2176  1429  3069    1
  2177  1429  3070    1
  2178  1429  3071    1
  2179  1430  1435    1
  2180  1430  3072    1
  2181  1430  3073    1
  2182  1431  1628    1
  2183  1431  1626    1
  2184  1431  1433    1
  2185  1432  3074    1
  2186  1432  3075    1
  2187  1433  3076    1
  2188  1433  3077    1
  2189  1433  3078    1
  2190  1434  3079    1
  2191  1434  3080    1
  2192  1434  3081    1
  2193  1435  3082    1
  2194  1435  3083    1
  2195  1436  3084    1
  2196  1436  3085    1
  2197  1436  3086    1
  2198  1436  3087    1
  2199  1437  3088    1
  2200  1437  3089    1
  2201  1438  1627    1
  2202  1438  3090    1
  2203  1439  1637    1
  2204  1439  3091    1
  2205  1439  3092    1
  2206  1439  3093    1
  2207  1440  1757    1
  2208  1441  1454    1
  2209  1442  1446    2
  2210  1445  1449    1
  2211  1445  1458    1
  2212  1447  1452    2
  2213  1449  1741    1
  2214  1450  1453    1
  2215  1450  1454    1
  2216  1455  1754    1
  2217  1456  1458    1
  2218  1463  1478    1
  2219  1463  1473    1
  2220  1465  1472    1
  2221  1466  1469    2
  2222  1471  1477    1
  2223  1472  1476    1
  2224  1473  1476    1
  2225  1474  1479    1
  2226  1478  1479    1
  2227  1481  3094    1
  2228  1482  3095    1
  2229  1483  3096    1
  2230  1484  3097    1
  2231  1485  3098    1
  2232  1486  3099    1
  2233  1487  3100    1
  2234  1488  3101    1
  2235  1489  3102    1
  2236  1490  3103    1
  2237  1491  3104    1
  2238  1492  1497    1
  2239  1493  3105    1
  2240  1495  3106    1
  2241  1496  3107    1
  2242  1500  3108    1
  2243  1501  3109    1
  2244  1505  3110    1
  2245  1507  3111    1
  2246  1508  3112    1
  2247  1509  3113    1
  2248  1510  3114    1
  2249  1511  3115    1
  2250  1512  3116    1
  2251  1513  1517    1
  2252  1514  3117    1
  2253  1515  1518    1
  2254  1519  1678    1
  2255  1519  1535    1
  2256  1520  1522    1
  2257  1521  1682    2
  2258  1522  1523    1
  2259  1524  1535    1
  2260  1525  1531    1
  2261  1525  1527    1
  2262  1526  1534    1
  2263  1529  1688    1
  2264  1531  1534    1
  2265  1532  1533    2
  2266  1537  1693    1
  2267  1541  3118    1
  2268  1543  3119    1
  2269  1544  3120    1
  2270  1549  1712    1
  2271  1553  1558    1
  2272  1554  1555    1
  2273  1557  3121    1
  2274  1560  3122    1
  2275  1561  3123    1
  2276  1562  3124    1
  2277  1563  3125    1
  2278  1564  3126    1
  2279  1565  3127    1
  2280  1566  3128    1
  2281  1567  3129    1
  2282  1568  3130    1
  2283  1571  3131    1
  2284  1574  3132    1
  2285  1575  3133    1
  2286  1577  1578    1
  2287  1579  1599    1
  2288  1580  1615    1
  2289  1580  1582    1
  2290  1581  1592    2
  2291  1582  1596    1
  2292  1583  1587    1
  2293  1583  3134    1
  2294  1584  1614    1
  2295  1584  3135    1
  2296  1585  1606    1
  2297  1585  3136    1
  2298  1586  1610    1
  2299  1586  1588    1
  2300  1587  1597    1
  2301  1588  1608    1
  2302  1589  1594    1
  2303  1589  3137    1
  2304  1590  1603    1
  2305  1590  1595    1
  2306  1591  1594    1
  2307  1591  3138    1
  2308  1593  1597    1
  2309  1593  1598    1
  2310  1596  3139    1
  2311  1598  1617    1
  2312  1600  1612    1
  2313  1601  3140    1
  2314  1602  3141    1
  2315  1604  1609    1
  2316  1605  3142    1
  2317  1607  3143    1
  2318  1611  3144    1
  2319  1613  3145    1
  2320  1616  3146    1
  2321  1619  3147    1
  2322  1620  3148    1
  2323  1621  3149    1
  2324  1622  3150    1
  2325  1623  3151    1
  2326  1624  3152    1
  2327  1629  3153    1
  2328  1630  3154    1
  2329  1631  3155    1
  2330  1632  1636    1
  2331  1634  3156    1
  2332  1635  3157    1
  2333  1639  3158    1
  2334  1640  3159    1
  2335  1643  3160    1
  2336  1644  3161    1
  2337  1645  3162    1
  2338  1646  1734    1
  2339  1647  1657    1
  2340  1648  3163    1
  2341  1650  1651    1
  2342  1652  3164    1
  2343  1653  3165    1
  2344  1654  3166    1
  2345  1655  3167    1
  2346  1656  3168    1
  2347  1659  1673    1
  2348  1659  1676    1
  2349  1660  1664    1
  2350  1660  1661    1
  2351  1661  1675    1
  2352  1662  1669    1
  2353  1664  1668    1
  2354  1666  1671    1
  2355  1666  1672    1
  2356  1667  1668    1
  2357  1669  1671    1
  2358  1670  1674    2
  2359  1675  1676    1
  2360  1678  1692    1
  2361  1679  1689    1
  2362  1681  1690    1
  2363  1681  1687    1
  2364  1681  1684    1
  2365  1682  1689    1
  2366  1684  1695    2
  2367  1684  1685    1
  2368  1686  1692    1
  2369  1686  1694    1
  2370  1689  1696    1
  2371  1691  1696    1
  2372  1691  1692    1
  2373  1692  1694    1
  2374  1700  3169    1
  2375  1701  3170    1
  2376  1704  3171    1
  2377  1706  3172    1
  2378  1708  3173    1
  2379  1710  3174    1
  2380  1711  3175    1
  2381  1714  3176    1
  2382  1715  3177    1
  2383  1716  3178    1
  2384  1721  1726    1
  2385  1722  3179    1
  2386  1724  3180    1
  2387  1725  3181    1
  2388  1728  3182    1
  2389  1729  1730    1
  2390  1732  3183    1
  2391  1736  3184    1
  2392  1737  1757    1
  2393  1737  1755    1
  2394  1738  1752    2
  2395  1742  1748    1
  2396  1743  1750    2
  2397  1744  1745    2
  2398  1746  1747    1
  2399  1747  1749    1
  2400  1748  1751    1
  2401  1754  1756    1
  2402  1757  1774    1
  2403  1758  1776    1
  2404  1759  1761    1
  2405  1759  1762    1
  2406  1760  1761    1
  2407  1760  1770    1
  2408  1763  1766    3
  2409  1768  1770    2
  2410  1771  1776    1
  2411  1772  1775    1
  2412  1773  1775    1
  2413  1778  3185    1
  2414  1780  3186    1
  2415  1781  1786    1
  2416  1782  3187    1
  2417  1784  3188    1
  2418  1785  1789    1
  2419  1787  3189    1
  2420  1790  1793    1
  2421  1791  3190    1
  2422  1792  3191    1
  2423  1794  3192    1
  2424  1795  1796    1
  2425   977   975    1
