@<TRIPOS>MOLECULE
2LVZ_LIGAND_1.pdb
 3400 2632 0 0 0
SMALL
GASTEIGER

@<TRIPOS>ATOM
      1  H3       -28.3040   25.6130   36.2070 H     201  LVZ201      0.0254
      2  H3       -28.3150   26.0140   33.9750 H     201  LVZ201      0.0529
      3  H3       -27.6490   25.0270   34.6720 H     201  LVZ201      0.0194
      4  H3       -26.8870   24.9430   34.7480 H     201  LVZ201      0.0194
      5  H3       -27.9530   24.8610   34.5240 H     201  LVZ201      0.0000
      6  H3       -28.7540   25.8420   33.5200 H     201  LVZ201      0.0194
      7  H3       -29.2190   26.3310   34.8320 H     201  LVZ201      0.0000
      8  H3       -27.3770   24.6400   35.5200 H     201  LVZ201      0.0000
      9  H3       -28.3790   25.7880   36.2970 H     201  LVZ201      0.0000
     10  H3       -28.9060   25.6970   36.1870 H     201  LVZ201      0.0000
     11  H3       -30.1160   25.9980   34.3430 H     201  LVZ201      0.0000
     12  H3       -29.1330   27.2120   33.1030 H     201  LVZ201      0.0260
     13  H3       -29.0140   25.6920   35.1010 H     201  LVZ201      0.0227
     14  H3       -28.7500   25.4290   34.0220 H     201  LVZ201      0.0000
     15  H3       -30.0970   26.1260   35.2450 H     201  LVZ201      0.0000
     16  H3       -27.2980   24.9290   34.2280 H     201  LVZ201      0.0000
     17  H3       -29.1260   26.6330   33.6780 H     201  LVZ201      0.0194
     18  H3       -25.4340   26.5660   35.6490 H     201  LVZ201      0.0000
     19  H3       -29.8000   26.8070   33.8300 H     201  LVZ201      0.0000
     20  H3       -29.4950   26.0380   36.2820 H     201  LVZ201      0.0000
     21  H3A      -29.2870   26.2390   34.8360 H     201  LVZ201      0.0254
     22  H3A      -26.8900   24.9060   33.9100 H     201  LVZ201      0.0194
     23  H3A      -27.5440   25.6120   36.3510 H     201  LVZ201      0.0000
     24  H3A      -27.4410   25.5370   36.3150 H     201  LVZ201      0.0000
     25  H3A      -29.3420   25.7340   35.1170 H     201  LVZ201      0.0000
     26  H3A      -27.6900   24.6830   34.2930 H     201  LVZ201      0.0000
     27  H3A      -28.8290   26.4440   33.1840 H     201  LVZ201      0.0194
     28  H3A      -28.5920   25.7350   36.2950 H     201  LVZ201      0.0000
     29  H3A      -29.4990   26.1500   34.9080 H     201  LVZ201      0.0194
     30  H3A      -29.1160   25.7680   34.3860 H     201  LVZ201      0.0194
     31  H3A      -28.4780   25.3290   34.5040 H     201  LVZ201      0.0230
     32  H3A      -28.3400   25.6380   33.0610 H     201  LVZ201      0.0000
     33  H3A      -29.0960   26.7940   33.7500 H     201  LVZ201      0.0260
     34  H3A      -29.3110   25.8390   35.6990 H     201  LVZ201      0.0000
     35  H3A      -28.5480   25.3530   35.2340 H     201  LVZ201      0.0000
     36  H3A      -25.5740   25.1700   33.8480 H     201  LVZ201      0.0000
     37  H3A      -28.0330   25.3110   33.6350 H     201  LVZ201      0.0000
     38  H3A      -26.3890   25.4570   34.6710 H     201  LVZ201      0.0000
     39  H3A      -28.9780   28.1780   33.0980 H     201  LVZ201      0.0194
     40  H3A      -30.1710   26.2510   34.6840 H     201  LVZ201      0.0000
     41  O4       -35.0960   39.6840   38.3730 O.3   203  SGN203     -0.3865
     42  O4       -33.3450   38.7080   39.2770 O.3   203  SGN203     -0.2528
     43  O4       -33.4240   39.4150   38.5660 O.3   203  SGN203     -0.0046
     44  O4       -33.8070   39.0400   38.5700 O.3   203  SGN203     -0.4105
     45  O4       -33.2850   39.5410   38.7420 O.3   203  SGN203     -0.4105
     46  O4       -33.7140   39.0680   38.9530 O.3   203  SGN203     -0.0383
     47  O4       -33.9770   39.2250   38.6350 O.3   203  SGN203     -0.0383
     48  O4       -32.9600   38.8460   38.3440 O.3   203  SGN203     -0.2026
     49  O4       -33.2820   39.7660   38.6020 O.3   203  SGN203     -0.2059
     50  O4       -33.1560   39.0850   38.6210 O.3   203  SGN203     -0.0332
     51  O4       -34.1220   39.4790   38.2560 O.3   203  SGN203     -0.4105
     52  O4       -33.7920   39.9500   38.5290 O.3   203  SGN203     -0.4105
     53  O4       -33.6750   39.7390   38.5130 O.3   203  SGN203     -0.0335
     54  O4       -33.7890   39.6430   38.6360 O.3   203  SGN203     -0.2179
     55  O4       -33.5710   40.5450   39.3480 O.3   203  SGN203     -0.4105
     56  O4       -33.8310   37.8740   38.8380 O.2   203  SGN203     -0.3047
     57  O4       -33.7840   38.8390   39.3560 O.3   203  SGN203     -0.2528
     58  O4       -33.9620   38.7310   39.0360 O.3   203  SGN203     -0.2179
     59  O4       -33.1380   39.7710   39.9370 O.3   203  SGN203     -0.4105
     60  O4       -32.8040   39.7500   39.8730 O.3   203  SGN203     -0.4105
     61  C2       -26.8390   27.6410   33.7170 C.3   201  LVZ201     -0.0388
     62  C2       -26.1560   27.6080   33.3270 C.2   201  LVZ201     -0.1058
     63  C2       -27.4090   26.9750   33.2680 C.3   201  LVZ201     -0.0655
     64  C2       -27.5480   27.2340   33.1660 C.3   201  LVZ201     -0.0655
     65  C2       -26.1740   27.1550   34.3620 C.3   201  LVZ201     -0.0776
     66  C2       -26.5500   27.0940   33.3010 C.3   201  LVZ201     -0.0379
     67  C2       -26.5100   27.5780   33.3400 C.3   201  LVZ201     -0.0618
     68  C2       -26.7180   26.8590   33.6040 C.2   201  LVZ201     -0.0914
     69  C2       -27.4980   27.6910   33.4530 C.3   201  LVZ201     -0.0588
     70  C2       -26.8240   27.0550   33.9620 C.2   201  LVZ201     -0.1026
     71  C2       -29.0450   27.7940   32.7970 C.3   201  LVZ201     -0.0776
     72  C2       -26.4740   27.4910   33.7180 C.3   201  LVZ201     -0.0559
     73  C2       -26.5980   27.7280   33.6600 C.3   201  LVZ201     -0.0776
     74  C2       -27.1930   27.5620   33.7170 C.3   201  LVZ201     -0.0655
     75  C2       -28.7420   27.6450   33.4730 C.3   201  LVZ201     -0.0655
     76  C2       -27.2150   27.1220   32.5060 C.3   201  LVZ201     -0.0655
     77  C2       -26.6020   27.5490   33.4950 C.2   201  LVZ201     -0.1058
     78  C2       -27.4040   27.2980   32.8720 C.3   201  LVZ201     -0.0588
     79  C2       -26.3460   27.1030   34.3590 C.3   201  LVZ201     -0.0559
     80  C2       -27.8620   27.2740   33.4680 C.3   201  LVZ201     -0.0776
     81  O4       -31.7460   37.4030   36.0900 O.3   202  IDS202     -0.3410
     82  O4       -31.1820   36.8450   35.8520 O.3   202  IDS202     -0.2203
     83  O4       -30.9170   37.3850   35.6390 O.2   202  IDS202      0.0000
     84  O4       -31.4440   36.9640   35.6310 O.3   202  IDS202     -0.4105
     85  O4       -30.8580   37.0940   35.8800 O.3   202  IDS202     -0.0717
     86  O4       -30.8600   37.1890   35.8770 O.3   202  IDS202     -0.2201
     87  O4       -30.7910   37.3740   35.8520 O.3   202  IDS202     -0.4105
     88  O4       -30.0640   37.0860   35.3220 O.3   202  IDS202     -0.4105
     89  O4       -30.4040   37.2890   36.0020 O.3   202  IDS202     -0.2203
     90  O4       -30.3380   37.1890   35.5560 O.3   202  IDS202     -0.2203
     91  O4       -30.7740   37.3190   35.8110 O.3   202  IDS202     -0.0717
     92  O4       -30.9320   37.4540   35.9100 O.3   202  IDS202     -0.4105
     93  O4       -30.7390   37.4430   36.0890 O.3   202  IDS202     -0.2203
     94  O4       -31.2790   37.5810   35.8730 O.2   202  IDS202      0.0000
     95  O4       -31.2010   37.6350   36.6430 O.2   202  IDS202      0.0000
     96  O4       -30.5110   36.5950   35.8810 O.3   202  IDS202     -0.3950
     97  O4       -31.0210   37.1220   36.2880 O.3   202  IDS202     -0.0690
     98  O4       -31.0690   36.7710   36.0870 O.3   202  IDS202     -0.2047
     99  O4       -31.0020   37.1440   36.7360 O.2   202  IDS202      0.0000
    100  O4       -30.8030   37.1370   36.7910 O.3   202  IDS202     -0.4105
    101  O2S      -27.5870   34.9880   30.7760 O.3   202  IDS202     -0.1439
    102  O2S      -27.3170   34.8360   30.4320 O.2   202  IDS202      0.0000
    103  O2S      -28.0070   35.1740   29.8420 O.3   202  IDS202     -0.0383
    104  O2S      -26.9530   34.5050   31.0830 O.3   202  IDS202     -0.2372
    105  O2S      -26.8110   34.1410   30.7660 O.3   202  IDS202     -0.2184
    106  O2S      -28.1610   34.1170   31.0810 O.3   202  IDS202     -0.4105
    107  O2S      -28.4360   34.3290   31.0620 O.2   202  IDS202      0.0000
    108  O2S      -25.9940   34.1230   30.5530 O.3   202  IDS202     -0.4105
    109  O2S      -26.7070   34.3040   31.1100 O.3   202  IDS202     -0.4105
    110  O2S      -27.6890   34.0260   30.7390 O.3   202  IDS202     -0.0183
    111  O2S      -27.0600   34.9170   31.6620 O.2   202  IDS202     -0.2278
    112  O2S      -27.2480   34.1370   30.7110 O.3   202  IDS202     -0.0421
    113  O2S      -25.9950   35.2440   31.5280 O.3   202  IDS202     -0.2179
    114  O2S      -26.7820   34.9220   31.1190 O.2   202  IDS202      0.0000
    115  O2S      -27.8940   34.8150   31.1930 O.3   202  IDS202     -0.2026
    116  O2S      -27.8030   33.4280   30.7670 O.2   202  IDS202     -0.1158
    117  O2S      -26.6990   34.8230   30.9840 O.3   202  IDS202     -0.1522
    118  O2S      -29.4860   33.7790   30.9470 O.3   202  IDS202     -0.2382
    119  O2S      -27.0730   35.1790   31.4580 O.2   202  IDS202      0.0000
    120  O2S      -27.5630   35.1660   30.8760 O.2   202  IDS202      0.0000
    121  O6S      -35.9900   36.1770   38.8650 O.3   203  SGN203     -0.2826
    122  O6S      -35.0740   35.5600   39.4360 O.2   203  SGN203      0.0000
    123  O6S      -36.0980   35.8450   38.0360 O.2   203  SGN203     -0.2278
    124  O6S      -35.4900   36.6340   39.0310 O.3   203  SGN203     -0.0025
    125  O6S      -35.2230   35.9490   39.2880 O.2   203  SGN203      0.0000
    126  O6S      -34.8560   35.6890   39.3580 O.3   203  SGN203     -0.2179
    127  O6S      -35.2150   35.9980   39.0540 O.3   203  SGN203     -0.0359
    128  O6S      -35.6510   36.5380   38.2760 O.3   203  SGN203     -0.0163
    129  O6S      -36.9190   36.0300   38.5430 O.2   203  SGN203      0.0000
    130  O6S      -37.0720   36.1380   38.4450 O.2   203  SGN203      0.0000
    131  O6S      -37.3710   36.2270   38.8050 O.3   203  SGN203     -0.4105
    132  O6S      -37.3790   36.7650   38.1140 O.3   203  SGN203     -0.2203
    133  O6S      -36.9810   36.2920   37.7940 O.3   203  SGN203     -0.2811
    134  O6S      -36.1740   36.5560   38.0590 O.3   203  SGN203     -0.0709
    135  O6S      -38.0040   37.7110   38.3910 O.3   203  SGN203     -0.2179
    136  O6S      -36.8050   36.0620   38.3180 O.3   203  SGN203     -0.4105
    137  O6S      -37.7870   35.8140   37.1620 O.3   203  SGN203     -0.0164
    138  O6S      -37.5190   35.3850   37.5960 O.3   203  SGN203     -0.0359
    139  O6S      -37.5790   36.3760   38.3220 O.3   203  SGN203     -0.0717
    140  O6S      -36.1490   34.4440   38.7610 O.3   203  SGN203     -0.4105
    141  N9       -29.4980   28.8340   38.0080 N.3   201  LVZ201     -0.1845
    142  N9       -29.2070   28.5830   37.6110 N.2   201  LVZ201     -0.2112
    143  N9       -29.1380   29.2310   37.7300 N.3   201  LVZ201     -0.2055
    144  N9       -29.0670   28.8390   38.1100 N.3   201  LVZ201     -0.2464
    145  N9       -29.1750   28.9100   38.1400 N.3   201  LVZ201     -0.1804
    146  N9       -29.2960   28.8560   37.5970 N.3   201  LVZ201     -0.2477
    147  N9       -29.2710   29.1930   37.7710 N.3   201  LVZ201     -0.3380
    148  N9       -28.7120   28.9460   37.9160 N.3   201  LVZ201     -0.1881
    149  N9       -29.3510   28.9450   38.4120 N.3   201  LVZ201     -0.2377
    150  N9       -29.4640   28.8590   38.0310 N.4   201  LVZ201      0.4292
    151  N9       -29.2930   28.9730   38.1010 N.1   201  LVZ201      0.0000
    152  N9       -29.5280   29.0160   37.6960 N.3   201  LVZ201     -0.1446
    153  N9       -29.0350   29.1900   38.1260 N.3   201  LVZ201     -0.2582
    154  N9       -29.6400   29.1670   38.0980 N.3   201  LVZ201     -0.1446
    155  N9       -29.2900   29.2200   38.4950 N.1   201  LVZ201      0.0000
    156  N9       -28.7570   28.3030   37.6250 N.3   201  LVZ201     -0.3437
    157  N9       -29.0660   28.6190   37.8810 N.3   201  LVZ201     -0.2558
    158  N9       -28.8300   28.7250   37.8140 N.2   201  LVZ201     -0.2112
    159  N9       -29.2090   28.9970   38.0400 N.3   201  LVZ201     -0.0820
    160  N9       -28.8400   29.0170   38.3410 N.3   201  LVZ201     -0.1665
    161  H3       -29.9420   37.0650   34.1970 H     202  IDS202      0.0649
    162  H3       -29.5180   36.7660   34.0480 H     202  IDS202      0.0299
    163  H3       -29.5160   37.0170   33.5880 H     202  IDS202      0.0000
    164  H3       -29.8090   36.6230   34.0120 H     202  IDS202      0.0000
    165  H3       -29.3090   36.7400   34.1540 H     202  IDS202      0.0000
    166  H3       -28.7100   36.9030   34.7920 H     202  IDS202      0.0000
    167  H3       -28.8690   37.3020   34.5230 H     202  IDS202      0.0000
    168  H3       -28.4850   36.2840   33.6280 H     202  IDS202      0.0000
    169  H3       -29.2120   36.6330   33.9900 H     202  IDS202      0.0194
    170  H3       -28.5250   36.6350   34.0140 H     202  IDS202      0.0000
    171  H3       -28.6930   37.0170   34.6730 H     202  IDS202      0.0000
    172  H3       -29.0450   37.1580   34.2010 H     202  IDS202      0.0000
    173  H3       -28.9370   37.1960   34.5690 H     202  IDS202      0.0000
    174  H3       -29.4790   37.1000   34.1860 H     202  IDS202      0.0235
    175  H3       -29.7430   37.2640   35.0220 H     202  IDS202      0.2052
    176  H3       -28.5220   36.1460   34.4720 H     202  IDS202      0.0000
    177  H3       -29.0360   36.8840   34.9100 H     202  IDS202      0.0000
    178  H3       -29.6260   36.6660   34.1480 H     202  IDS202      0.0194
    179  H3       -29.6590   36.8240   34.7490 H     202  IDS202      0.0000
    180  H3       -29.0800   36.9220   35.1090 H     202  IDS202      0.0000
    181  H2A      -27.6480   28.0730   33.1290 H     201  LVZ201      0.0254
    182  H2A      -26.9460   28.1470   32.8060 H     201  LVZ201      0.0000
    183  H2A      -28.4020   26.6600   32.9450 H     201  LVZ201      0.0000
    184  H2A      -28.5170   26.8450   32.8530 H     201  LVZ201      0.0000
    185  H2A      -25.5880   28.0190   34.6780 H     201  LVZ201      0.0000
    186  H2A      -27.3510   27.2830   32.5860 H     201  LVZ201      0.0000
    187  H2A      -27.1270   28.0090   32.5520 H     201  LVZ201      0.0000
    188  H2A      -27.5690   27.4060   33.1980 H     201  LVZ201      0.0194
    189  H2A      -27.3950   26.8040   32.8280 H     201  LVZ201      0.0230
    190  H2A      -27.5020   27.7330   33.4440 H     201  LVZ201      0.0000
    191  H2A      -28.4970   28.6880   32.5000 H     201  LVZ201      0.0000
    192  H2A      -25.6510   28.0460   34.1690 H     201  LVZ201      0.0000
    193  H2A      -25.7700   28.3410   34.0140 H     201  LVZ201      0.0000
    194  H2A      -26.3540   28.2400   33.8730 H     201  LVZ201      0.0194
    195  H2A      -28.8280   28.6400   33.0380 H     201  LVZ201      0.0000
    196  H2A      -27.4270   28.1670   32.2800 H     201  LVZ201      0.0000
    197  H2A      -25.6650   27.9530   33.8770 H     201  LVZ201      0.0000
    198  H2A      -27.9920   28.1710   32.5890 H     201  LVZ201      0.0000
    199  H2A      -26.1830   26.1320   33.8900 H     201  LVZ201      0.0194
    200  H2A      -28.8250   27.4950   33.0090 H     201  LVZ201      0.0194
    201  H4       -34.9010   40.0770   36.3700 H     203  SGN203      0.0646
    202  H4       -33.9670   39.7960   37.6190 H     203  SGN203      0.0000
    203  H4       -33.7930   40.4440   36.7320 H     203  SGN203      0.0000
    204  H4       -34.2050   40.1570   36.9430 H     203  SGN203      0.0000
    205  H4       -33.7180   40.2870   36.8440 H     203  SGN203      0.0000
    206  H4       -33.9580   39.8640   37.0190 H     203  SGN203      0.0227
    207  H4       -34.1160   40.1130   36.7460 H     203  SGN203      0.0000
    208  H4       -33.2030   39.9400   36.5800 H     203  SGN203      0.0268
    209  H4       -33.4670   40.4190   36.6720 H     203  SGN203      0.0000
    210  H4       -33.3890   40.1520   36.9230 H     203  SGN203      0.0227
    211  H4       -34.0220   40.0120   36.3090 H     203  SGN203      0.0000
    212  H4       -33.7390   40.5480   36.6110 H     203  SGN203      0.0000
    213  H4       -33.7470   40.6620   36.5890 H     203  SGN203      0.0000
    214  H4       -34.0040   40.8130   36.8370 H     203  SGN203      0.0000
    215  H4       -33.7230   41.2550   37.4560 H     203  SGN203      0.0000
    216  H4       -33.8400   39.0260   37.1480 H     203  SGN203      0.0194
    217  H4       -34.3710   39.8020   37.5690 H     203  SGN203      0.0000
    218  H4       -34.2610   39.5690   37.1770 H     203  SGN203      0.0000
    219  H4       -33.9160   40.2620   38.1590 H     203  SGN203      0.2052
    220  H4       -33.5730   40.1920   37.9380 H     203  SGN203      0.0000
    221  C3       -28.2890   25.9650   35.1760 C.3   201  LVZ201     -0.0388
    222  C3       -27.4170   25.6650   34.4870 C.3   201  LVZ201     -0.0776
    223  C3       -27.9510   25.8150   35.3610 C.1   201  LVZ201     -0.1225
    224  C3       -27.5940   25.6120   35.2390 C.1   201  LVZ201     -0.1225
    225  C3       -28.3470   25.8640   34.6880 C.3   201  LVZ201     -0.0655
    226  C3       -28.1910   25.6400   34.4320 C.3   201  LVZ201     -0.0655
    227  C3       -28.3720   26.2430   34.1520 C.3   201  LVZ201     -0.0776
    228  C3       -28.0010   25.5250   35.4030 C.3   201  LVZ201     -0.0681
    229  C3       -28.4750   25.9520   35.2240 C.3   201  LVZ201     -0.0776
    230  C3       -28.4130   25.6920   35.2140 C.3   201  LVZ201     -0.0681
    231  C3       -29.1230   26.1690   34.7620 C.3   201  LVZ201     -0.0776
    232  C3       -28.6640   26.4450   33.7180 C.3   201  LVZ201     -0.0776
    233  C3       -28.4040   26.2550   34.3960 C.2   201  LVZ201     -0.1058
    234  C3       -29.0690   26.2170   34.7050 C.2   201  LVZ201     -0.1058
    235  C3       -29.0600   26.2620   35.5520 C.3   201  LVZ201     -0.0681
    236  C3       -26.4180   25.5410   34.4300 C.3   201  LVZ201     -0.0776
    237  C3       -28.4260   26.0790   34.3020 C.3   201  LVZ201     -0.0588
    238  C3       -25.8270   26.3910   34.6480 C.3   201  LVZ201     -0.0776
    239  C3       -28.8280   27.1800   33.5090 C.3   201  LVZ201     -0.0588
    240  C3       -29.2560   26.0010   35.2190 C.3   201  LVZ201     -0.0681
    241  O1S      -30.3440   39.9720   33.5990 O.3   203  SGN203     -0.0889
    242  O1S      -29.9350   39.2240   33.6130 O.3   203  SGN203     -0.4105
    243  O1S      -29.3340   39.6000   33.0900 O.3   203  SGN203     -0.2179
    244  O1S      -29.7730   39.1440   33.1380 O.3   203  SGN203     -0.4105
    245  O1S      -30.2950   39.5580   32.9100 O.2   203  SGN203      0.0000
    246  O1S      -29.7150   39.5690   33.3820 O.3   203  SGN203      0.0000
    247  O1S      -29.5270   39.6690   33.3830 O.2   203  SGN203      0.0000
    248  O1S      -28.2350   39.3940   33.2830 O.2   203  SGN203      0.0000
    249  O1S      -28.1210   38.5770   34.0570 O.3   203  SGN203     -0.4105
    250  O1S      -28.9560   39.8590   33.0270 O.3   203  SGN203     -0.4105
    251  O1S      -29.1300   39.6110   33.2780 O.2   203  SGN203      0.0000
    252  O1S      -29.5840   40.0040   33.3200 O.2   203  SGN203      0.0000
    253  O1S      -29.3590   39.3770   33.4810 O.3   203  SGN203      0.0000
    254  O1S      -29.1410   39.4450   33.4250 O.3   203  SGN203     -0.0359
    255  O1S      -29.6800   39.5110   33.5810 O.3   203  SGN203     -0.0025
    256  O1S      -29.6180   39.4640   33.7800 O.3   203  SGN203      0.0000
    257  O1S      -30.0110   39.6680   33.9200 O.3   203  SGN203     -0.0001
    258  O1S      -28.5970   40.5920   34.5100 O.3   203  SGN203     -0.1326
    259  O1S      -30.2620   39.3280   33.7710 O.3   203  SGN203     -0.0013
    260  O1S      -28.6870   40.9510   34.3170 O.3   203  SGN203     -0.0210
    261 H69A      -25.7460   32.5570   34.8730 H     201  LVZ201      0.0601
    262 H69A      -25.3340   32.3310   34.8850 H     201  LVZ201      0.0000
    263 H69A      -25.5980   32.2860   33.9640 H     201  LVZ201      0.0230
    264 H69A      -25.6510   32.0280   34.9000 H     201  LVZ201      0.0194
    265 H69A      -25.3800   32.1740   34.7830 H     201  LVZ201      0.0000
    266 H69A      -25.2570   32.1580   34.7010 H     201  LVZ201      0.0000
    267 H69A      -25.0050   32.0590   35.0060 H     201  LVZ201      0.0000
    268 H69A      -25.1500   32.1200   34.3510 H     201  LVZ201      0.2052
    269 H69A      -25.2930   32.0100   35.2170 H     201  LVZ201      0.0000
    270 H69A      -24.8800   31.2670   35.1170 H     201  LVZ201      0.2528
    271 H69A      -24.9250   31.3080   34.5230 H     201  LVZ201      0.2052
    272 H69A      -25.7230   32.5970   34.5870 H     201  LVZ201      0.0194
    273 H69A      -25.1260   32.4000   34.6670 H     201  LVZ201      0.0230
    274 H69A      -26.2500   32.7610   34.6040 H     201  LVZ201      0.0000
    275 H69A      -25.7940   32.6190   34.9380 H     201  LVZ201      0.0000
    276 H69A      -25.3760   31.9380   34.3150 H     201  LVZ201      0.0000
    277 H69A      -25.4830   32.4170   34.8420 H     201  LVZ201      0.0000
    278 H69A      -25.1910   32.7910   35.1350 H     201  LVZ201      0.0000
    279 H69A      -25.7730   33.0950   35.1590 H     201  LVZ201      0.0000
    280 H69A      -26.5510   32.0840   33.2150 H     201  LVZ201      0.0000
    281  H1       -27.8960   34.6100   35.0720 H     202  IDS202      0.0938
    282  H1       -27.6360   34.2440   34.4560 H     202  IDS202      0.0000
    283  H1       -27.7530   34.2190   34.1610 H     202  IDS202      0.0000
    284  H1       -28.1280   34.2180   35.0550 H     202  IDS202      0.0988
    285  H1       -27.4620   34.2010   34.8130 H     202  IDS202      0.0000
    286  H1       -27.2490   34.2910   35.2200 H     202  IDS202      0.0000
    287  H1       -27.0850   34.6780   34.9080 H     202  IDS202      0.0000
    288  H1       -26.9780   33.8810   34.3940 H     202  IDS202      0.0000
    289  H1       -27.4440   34.1320   35.1410 H     202  IDS202      0.0000
    290  H1       -26.9340   33.9850   35.2390 H     202  IDS202      0.0000
    291  H1       -27.2350   34.2250   35.9760 H     202  IDS202      0.0000
    292  H1       -27.6000   34.4180   34.7770 H     202  IDS202      0.0000
    293  H1       -27.1640   34.3820   35.5680 H     202  IDS202      0.0000
    294  H1       -27.9850   34.5640   35.3190 H     202  IDS202      0.0230
    295  H1       -27.9230   34.5310   35.6410 H     202  IDS202      0.0270
    296  H1       -27.0620   33.4560   34.6970 H     202  IDS202      0.0000
    297  H1       -27.2890   34.2640   35.3210 H     202  IDS202      0.0000
    298  H1       -27.3400   34.3150   34.7230 H     202  IDS202      0.0000
    299  H1       -27.6450   34.3890   35.0600 H     202  IDS202      0.0000
    300  H1       -27.1850   34.3990   35.2660 H     202  IDS202      0.0000
    301  O4S      -23.7330   32.0070   32.5410 O.3   201  LVZ201     -0.2863
    302  O4S      -23.3260   32.4380   33.2270 O.2   201  LVZ201      0.0000
    303  O4S      -23.9140   32.5530   32.2000 O.3   201  LVZ201     -0.4105
    304  O4S      -23.5140   31.9170   32.7940 O.3   201  LVZ201     -0.4105
    305  O4S      -23.4300   31.8870   33.0340 O.3   201  LVZ201     -0.0234
    306  O4S      -22.9210   32.3420   33.2530 O.2   201  LVZ201      0.0000
    307  O4S      -23.1360   31.8060   32.5680 O.3   201  LVZ201     -0.2179
    308  O4S      -22.6210   31.9070   32.8620 O.3   201  LVZ201     -0.4105
    309  O4S      -23.6160   31.8210   32.5060 O.3   201  LVZ201     -0.0717
    310  O4S      -23.2210   31.5440   32.8800 O.3   201  LVZ201     -0.0373
    311  O4S      -23.6680   30.5870   31.9250 O.2   201  LVZ201      0.0000
    312  O4S      -23.4370   32.3170   32.9900 O.3   201  LVZ201     -0.1327
    313  O4S      -23.3020   32.1250   32.4710 O.3   201  LVZ201     -0.2203
    314  O4S      -24.5520   32.9720   32.6260 O.3   201  LVZ201     -0.0383
    315  O4S      -23.8010   32.7430   33.1470 O.2   201  LVZ201      0.0000
    316  O4S      -23.2240   31.8120   32.6090 O.3   201  LVZ201     -0.2203
    317  O4S      -23.3700   32.5000   33.0830 O.2   201  LVZ201      0.0000
    318  O4S      -23.5720   32.1520   32.3180 O.3   201  LVZ201     -0.2179
    319  O4S      -23.8230   32.6120   32.2900 O.3   201  LVZ201     -0.0383
    320  O4S      -23.9470   33.4310   32.7770 O.3   201  LVZ201     -0.2179
    321  C6       -31.2940   35.5090   38.0590 C.3   202  IDS202      0.2560
    322  C6       -31.3340   34.4840   37.1580 C.3   202  IDS202     -0.0776
    323  C6       -31.0930   34.9940   37.3010 C.3   202  IDS202     -0.0469
    324  C6       -32.3090   34.5130   37.0300 C.3   202  IDS202      0.0748
    325  C6       -31.3780   34.6550   37.3990 C.3   202  IDS202     -0.0379
    326  C6       -31.4710   34.5680   37.0700 C.3   202  IDS202     -0.0154
    327  C6       -31.0400   35.0670   37.2840 C.3   202  IDS202     -0.0525
    328  C6       -30.6920   34.7720   37.0760 C.3   202  IDS202     -0.0499
    329  C6       -31.0120   35.0970   37.9210 C.3   202  IDS202     -0.0573
    330  C6       -31.1480   34.6570   36.9890 C.3   202  IDS202     -0.0379
    331  C6       -31.6200   35.0380   37.0820 C.3   202  IDS202      0.1024
    332  C6       -31.2720   35.0290   37.4090 C.3   202  IDS202     -0.0031
    333  C6       -31.1520   34.8860   37.6580 C.3   202  IDS202     -0.0499
    334  C6       -31.9530   35.1990   37.4850 C.3   202  IDS202      0.2153
    335  C6       -31.5310   35.4850   38.4700 C.3   202  IDS202     -0.0776
    336  C6       -30.3900   34.3520   37.5760 C.3   202  IDS202     -0.0358
    337  C6       -30.9750   34.7440   37.9670 C.3   202  IDS202     -0.0358
    338  C6       -30.7920   34.3780   37.7950 C.3   202  IDS202      0.0912
    339  C6       -30.7800   34.7320   38.4370 C.3   202  IDS202     -0.0776
    340  C6       -30.3540   34.7790   38.5760 C.3   202  IDS202      0.0748
    341  O61      -32.5120   35.5010   38.3030 O.3   202  IDS202     -0.1996
    342  O61      -32.5630   34.3850   37.2960 O.2   202  IDS202      0.0000
    343  O61      -32.3330   34.9900   37.3710 O.3   202  IDS202     -0.2009
    344  O61      -33.4760   34.4820   36.7590 O.3   202  IDS202     -0.2179
    345  O61      -32.6740   34.7010   37.3190 O.3   202  IDS202     -0.2082
    346  O61      -32.6820   34.3660   36.7670 O.3   202  IDS202     -0.2179
    347  O61      -32.3050   35.0000   37.2280 O.3   202  IDS202     -0.0662
    348  O61      -31.9350   34.7790   37.1490 O.3   202  IDS202     -0.2010
    349  O61      -32.2290   35.3030   38.1420 O.3   202  IDS202     -0.2179
    350  O61      -32.3330   34.5630   36.7010 O.3   202  IDS202     -0.0383
    351  O61      -32.7910   34.7050   36.7260 O.3   202  IDS202     -0.0383
    352  O61      -32.5070   34.9080   37.5420 O.2   202  IDS202      0.0000
    353  O61      -32.3120   35.3120   37.6460 O.3   202  IDS202     -0.2009
    354  O61      -33.1980   35.0470   37.3350 O.3   202  IDS202     -0.4105
    355  O61      -32.6420   35.9380   38.7690 O.3   202  IDS202     -0.2474
    356  O61      -31.6040   34.4480   37.8220 O.2   202  IDS202      0.0000
    357  O61      -32.2420   34.6440   38.0110 O.3   202  IDS202     -0.0359
    358  O61      -32.0280   34.4440   38.0730 O.2   202  IDS202      0.0000
    359  O61      -31.9360   34.7200   38.8620 O.3   202  IDS202     -0.0001
    360  O61      -31.4200   35.2520   39.0450 O.3   202  IDS202     -0.0025
    361  C19      -27.5180   29.3090   36.6250 C.3   201  LVZ201      0.1792
    362  C19      -27.1230   28.8650   36.2420 C.3   201  LVZ201     -0.0465
    363  C19      -27.3280   29.2340   35.9320 C.3   201  LVZ201     -0.0616
    364  C19      -27.2240   28.9050   36.2540 C.3   201  LVZ201     -0.0776
    365  C19      -27.3120   29.0390   36.5150 C.3   201  LVZ201     -0.0439
    366  C19      -27.1030   28.9180   36.1880 C.3   201  LVZ201     -0.0624
    367  C19      -27.3560   29.1930   36.1410 C.3   201  LVZ201     -0.0481
    368  C19      -26.6920   28.8070   36.3880 C.3   201  LVZ201     -0.0627
    369  C19      -27.4240   28.8800   36.7860 C.2   201  LVZ201     -0.1024
    370  C19      -27.3000   28.6750   36.8540 C.3   201  LVZ201     -0.0776
    371  C19      -27.7780   28.8210   36.1080 C.3   201  LVZ201     -0.0497
    372  C19      -27.5500   29.1500   36.0950 C.3   201  LVZ201     -0.0497
    373  C19      -27.1010   29.1300   36.5520 C.3   201  LVZ201     -0.0627
    374  C19      -27.7530   29.1590   36.4430 C.3   201  LVZ201     -0.0379
    375  C19      -27.7190   29.2370   36.4740 C.3   201  LVZ201     -0.0533
    376  C19      -26.8240   28.4250   35.8720 C.3   201  LVZ201     -0.0587
    377  C19      -27.2010   28.8960   36.3250 C.3   201  LVZ201     -0.0776
    378  C19      -26.9330   28.9180   36.1820 C.3   201  LVZ201     -0.0232
    379  C19      -27.2590   29.1320   36.3540 C.3   201  LVZ201     -0.0350
    380  C19      -27.2290   28.7670   36.4110 C.2   201  LVZ201     -0.0880
    381  HN       -30.3370   39.2840   35.9770 H     203  SGN203      0.1402
    382  HN       -29.5790   38.7580   35.9610 H     203  SGN203      0.0000
    383  HN       -29.3450   39.1610   35.3930 H     203  SGN203      0.0000
    384  HN       -29.8760   38.5610   35.4340 H     203  SGN203      0.0000
    385  HN       -29.5040   38.7560   35.4390 H     203  SGN203      0.0000
    386  HN       -29.5000   39.2290   35.8870 H     203  SGN203      0.0000
    387  HN       -29.4870   39.3310   35.9730 H     203  SGN203      0.0000
    388  HN       -28.5830   39.0570   35.4820 H     203  SGN203      0.0000
    389  HN       -28.6950   39.1770   36.3360 H     203  SGN203      0.0000
    390  HN       -28.8110   39.1240   35.4220 H     203  SGN203      0.1903
    391  HN       -29.3730   39.2840   35.7120 H     203  SGN203      0.0000
    392  HN       -29.4420   39.2880   35.7900 H     203  SGN203      0.0000
    393  HN       -29.0690   39.5510   36.0990 H     203  SGN203      0.1419
    394  HN       -29.5240   39.6880   36.0470 H     203  SGN203      0.1419
    395  HN       -29.4310   39.3230   36.0770 H     203  SGN203      0.1146
    396  HN       -29.2870   38.4160   36.0830 H     203  SGN203      0.0000
    397  HN       -29.6220   39.4460   36.2940 H     203  SGN203      0.0000
    398  HN       -29.9630   38.6320   35.4560 H     203  SGN203      0.0000
    399  HN       -29.6770   38.9550   36.3630 H     203  SGN203      0.0000
    400  HN       -29.5880   39.0020   35.7660 H     203  SGN203      0.0000
    401  H2B      -26.0110   28.3210   33.9190 H     201  LVZ201      0.0254
    402  H2B      -25.4690   28.4180   33.5700 H     201  LVZ201      0.2454
    403  H2B      -27.1400   27.9610   32.8890 H     201  LVZ201      0.0000
    404  H2B      -27.3340   28.2470   32.8270 H     201  LVZ201      0.0000
    405  H2B      -25.5700   26.2610   34.2160 H     201  LVZ201      0.0194
    406  H2B      -25.8780   27.9520   33.2960 H     201  LVZ201      0.0529
    407  H2B      -25.6210   28.1860   33.5150 H     201  LVZ201      0.0000
    408  H2B      -25.8020   27.4100   33.3930 H     201  LVZ201      0.0529
    409  H2B      -28.3790   28.1720   33.0280 H     201  LVZ201      0.0230
    410  H2B      -25.8550   27.5420   34.0670 H     201  LVZ201      0.0194
    411  H2B      -28.9050   27.0700   31.9940 H     201  LVZ201      0.0000
    412  H2B      -26.1230   26.5700   33.2500 H     201  LVZ201      0.0000
    413  H2B      -26.1720   26.9710   33.0030 H     201  LVZ201      0.0305
    414  H2B      -26.7900   26.6560   33.2620 H     201  LVZ201      0.0566
    415  H2B      -28.0040   27.1110   32.8760 H     201  LVZ201      0.0230
    416  H2B      -26.5780   26.6770   31.7420 H     201  LVZ201      0.0000
    417  H2B      -26.4410   26.7180   32.8090 H     201  LVZ201      0.0000
    418  H2B      -26.7760   26.8720   32.0900 H     201  LVZ201      0.0230
    419  H2B      -26.0670   27.8520   33.6180 H     201  LVZ201      0.0194
    420  H2B      -27.1810   28.1040   33.2800 H     201  LVZ201      0.0260
    421  C5       -30.9210   35.2380   36.5850 C.3   202  IDS202      0.1467
    422  C5       -30.7170   34.3960   35.7560 C.2   202  IDS202     -0.1026
    423  C5       -30.5060   34.9370   35.8410 C.1   202  IDS202     -0.1225
    424  C5       -31.3420   34.4840   35.8250 C.3   202  IDS202     -0.0776
    425  C5       -30.6200   34.6560   36.0640 C.2   202  IDS202     -0.0914
    426  C5       -30.4880   34.8040   35.8750 C.3   202  IDS202     -0.0776
    427  C5       -30.2760   35.0410   35.9420 C.3   202  IDS202     -0.0655
    428  C5       -30.0060   34.5770   35.7320 C.2   202  IDS202      0.1071
    429  C5       -30.4050   34.8060   36.4880 C.3   202  IDS202     -0.0776
    430  C5       -30.2290   34.6430   35.8130 C.1   202  IDS202     -0.1225
    431  C5       -30.5630   34.8540   35.9600 C.3   202  IDS202     -0.0655
    432  C5       -30.6600   35.0550   35.9940 C.3   202  IDS202     -0.0379
    433  C5       -30.3780   34.9410   36.3230 C.3   202  IDS202     -0.0588
    434  C5       -31.1170   35.1250   36.1880 C.3   202  IDS202     -0.0618
    435  C5       -31.0150   35.1650   37.0590 C.3   202  IDS202     -0.0573
    436  C5       -29.9920   34.1860   36.0530 C.3   202  IDS202     -0.0650
    437  C5       -30.3830   34.7740   36.5330 C.3   202  IDS202     -0.0176
    438  C5       -30.3010   34.3900   36.3010 C.3   202  IDS202     -0.0511
    439  C5       -30.5380   34.7260   36.9050 C.3   202  IDS202     -0.0602
    440  C5       -30.0700   34.6840   36.9840 C.3   202  IDS202      0.0852
    441  H59      -28.0920   30.6280   34.4910 H     201  LVZ201      0.0647
    442  H59      -27.4050   30.3080   33.9140 H     201  LVZ201      0.0000
    443  H59      -28.0220   30.4220   33.6630 H     201  LVZ201      0.0000
    444  H59      -27.7460   30.4000   33.8120 H     201  LVZ201      0.0000
    445  H59      -27.7510   30.2620   34.2540 H     201  LVZ201      0.0000
    446  H59      -27.4450   30.2790   33.8290 H     201  LVZ201      0.0000
    447  H59      -27.4260   30.5870   33.9040 H     201  LVZ201      0.0000
    448  H59      -27.2360   29.9110   33.9210 H     201  LVZ201      0.0000
    449  H59      -27.7180   30.3650   34.4940 H     201  LVZ201      0.0000
    450  H59      -27.3070   29.9330   34.4280 H     201  LVZ201      0.0000
    451  H59      -27.8510   30.5870   34.1500 H     201  LVZ201      0.0000
    452  H59      -27.9590   30.5860   33.7720 H     201  LVZ201      0.0000
    453  H59      -27.5650   30.5460   34.2060 H     201  LVZ201      0.0227
    454  H59      -28.4460   30.6200   34.3300 H     201  LVZ201      0.0000
    455  H59      -28.0470   30.6430   34.3030 H     201  LVZ201      0.0000
    456  H59      -27.5640   29.9350   33.8050 H     201  LVZ201      0.0000
    457  H59      -27.7530   30.4710   34.2200 H     201  LVZ201      0.0000
    458  H59      -26.8940   30.5730   34.0050 H     201  LVZ201      0.0230
    459  H59      -27.5430   30.8890   34.3850 H     201  LVZ201      0.0000
    460  H59      -27.9680   30.3160   34.3660 H     201  LVZ201      0.0000
    461  C4       -34.4430   39.4430   37.1290 C.3   203  SGN203      0.1110
    462  C4       -33.2900   38.9800   37.8760 C.3   203  SGN203      0.0862
    463  C4       -33.1790   39.6270   37.1120 C.3   203  SGN203     -0.0681
    464  C4       -33.6030   39.2760   37.1610 C.3   203  SGN203     -0.0776
    465  C4       -33.1320   39.5020   37.3230 C.3   203  SGN203     -0.0237
    466  C4       -33.3150   39.1600   37.5470 C.3   203  SGN203     -0.0324
    467  C4       -33.5400   39.3540   37.2790 C.3   203  SGN203     -0.0435
    468  C4       -32.6150   39.1130   36.9780 C.3   203  SGN203     -0.0776
    469  C4       -32.8140   39.7050   37.1770 C.3   203  SGN203     -0.0382
    470  C4       -32.8080   39.2860   37.2430 C.3   203  SGN203     -0.0619
    471  C4       -33.5050   39.2730   36.9210 C.3   203  SGN203     -0.0648
    472  C4       -33.2620   39.8180   37.2660 C.3   203  SGN203     -0.0528
    473  C4       -33.2970   39.8450   37.1510 C.3   203  SGN203     -0.0497
    474  C4       -33.5240   39.9180   37.2340 C.3   203  SGN203     -0.0681
    475  C4       -33.2560   40.4000   37.9440 C.3   203  SGN203     -0.0650
    476  C4       -33.2920   38.1720   37.5480 C.2   203  SGN203     -0.1058
    477  C4       -33.6220   39.0840   37.9060 C.3   203  SGN203     -0.0776
    478  C4       -33.6080   38.8420   37.6590 C.3   203  SGN203     -0.0230
    479  C4       -33.1390   39.5670   38.4750 C.3   203  SGN203     -0.0776
    480  C4       -32.8420   39.5490   38.4260 C.3   203  SGN203      0.0748
    481  C1       -32.5120   38.3620   35.2800 C.3   203  SGN203      0.1788
    482  C1       -31.9910   37.9890   35.4500 C.2   203  SGN203      0.1200
    483  C1       -31.6940   38.4040   35.0090 C.3   203  SGN203     -0.0776
    484  C1       -32.1700   38.1090   34.9540 C.3   203  SGN203     -0.0776
    485  C1       -31.6880   38.1430   35.2130 C.3   203  SGN203     -0.0001
    486  C1       -31.7460   38.2100   35.2660 C.3   203  SGN203     -0.0473
    487  C1       -31.6300   38.4390   35.2090 C.3   203  SGN203     -0.0681
    488  C1       -30.8420   38.2200   34.8270 C.3   203  SGN203     -0.0776
    489  C1       -31.0690   38.3720   35.3200 C.2   203  SGN203     -0.1026
    490  C1       -31.1640   38.2640   34.9170 C.2   203  SGN203     -0.0911
    491  C1       -31.5520   38.2850   34.9960 C.3   203  SGN203     -0.0776
    492  C1       -31.7370   38.5520   35.2880 C.3   203  SGN203     -0.0588
    493  C1       -31.4380   38.5070   35.2740 C.3   203  SGN203     -0.0348
    494  C1       -31.9580   38.6890   35.1040 C.3   203  SGN203     -0.0681
    495  C1       -31.9100   38.7410   35.9580 C.3   203  SGN203     -0.0619
    496  C1       -31.4310   37.6500   35.3380 C.3   203  SGN203     -0.0776
    497  C1       -31.8960   38.1810   35.6550 C.3   203  SGN203     -0.0464
    498  C1       -31.9710   37.7600   35.5220 C.3   203  SGN203     -0.0627
    499  C1       -31.9610   38.0670   36.1850 C.3   203  SGN203     -0.0627
    500  C1       -31.7100   38.1030   36.2050 C.3   203  SGN203     -0.0776
    501  H3B      -27.9810   25.2000   34.4620 H     201  LVZ201      0.0254
    502  H3B      -27.7660   25.2350   35.4270 H     201  LVZ201      0.0000
    503  H3B      -29.0400   25.8080   35.4160 H     201  LVZ201      0.0000
    504  H3B      -28.6210   25.3070   35.0410 H     201  LVZ201      0.0227
    505  H3B      -28.4010   26.1640   33.6420 H     201  LVZ201      0.0194
    506  H3B      -28.8610   25.7500   35.2840 H     201  LVZ201      0.0194
    507  H3B      -27.9650   25.2330   34.0840 H     201  LVZ201      0.0000
    508  H3B      -28.6780   25.4240   34.5540 H     201  LVZ201      0.0000
    509  H3B      -28.0770   25.1030   34.6680 H     201  LVZ201      0.0000
    510  H3B      -27.8790   24.7530   35.0680 H     201  LVZ201      0.0000
    511  H3B      -29.1640   26.1940   35.8510 H     201  LVZ201      0.0000
    512  H3B      -29.4770   26.0880   34.3500 H     201  LVZ201      0.0194
    513  H3B      -27.8960   25.5160   33.7750 H     201  LVZ201      0.0000
    514  H3B      -29.8510   26.7510   34.1650 H     201  LVZ201      0.0000
    515  H3B      -29.0610   26.1950   36.6400 H     201  LVZ201      0.0000
    516  H3B      -26.1740   25.4500   35.4890 H     201  LVZ201      0.0000
    517  H3B      -28.9160   25.5650   35.1300 H     201  LVZ201      0.0000
    518  H3B      -24.9890   26.1320   34.0010 H     201  LVZ201      0.0000
    519  H3B      -28.4900   26.4630   32.7600 H     201  LVZ201      0.0000
    520  H3B      -29.0430   24.9720   34.9240 H     201  LVZ201      0.0000
    521  H49      -27.8320   32.5410   36.8360 H     201  LVZ201      0.0650
    522  H49      -27.5380   32.3080   36.2000 H     201  LVZ201      0.0265
    523  H49      -27.4900   32.5470   35.6770 H     201  LVZ201      0.0000
    524  H49      -27.6340   32.2550   36.2060 H     201  LVZ201      0.0268
    525  H49      -27.5860   32.3020   36.4570 H     201  LVZ201      0.0000
    526  H49      -27.0850   32.2060   36.2390 H     201  LVZ201      0.0000
    527  H49      -27.1220   32.5020   36.2480 H     201  LVZ201      0.0000
    528  H49      -27.0620   31.9460   36.0320 H     201  LVZ201      0.0000
    529  H49      -27.3460   32.3710   36.7360 H     201  LVZ201      0.0000
    530  H49      -26.9440   31.9430   36.7010 H     201  LVZ201      0.0000
    531  H49      -26.9960   32.1640   36.6640 H     201  LVZ201      0.0000
    532  H49      -27.6280   32.4120   36.1460 H     201  LVZ201      0.0000
    533  H49      -27.0420   32.4870   36.5010 H     201  LVZ201      0.0000
    534  H49      -27.7930   32.5690   36.5250 H     201  LVZ201      0.0000
    535  H49      -27.5590   32.6430   36.7710 H     201  LVZ201      0.0000
    536  H49      -27.1590   31.7400   36.2110 H     201  LVZ201      0.0230
    537  H49      -27.3580   32.2280   36.5430 H     201  LVZ201      0.0000
    538  H49      -27.0140   32.4020   36.4710 H     201  LVZ201      0.0000
    539  H49      -27.2000   32.5700   36.8410 H     201  LVZ201      0.0000
    540  H49      -26.7070   32.3670   36.3140 H     201  LVZ201      0.0000
    541  O5       -29.4730   34.9960   36.4470 O.3   202  IDS202     -0.3375
    542  O5       -29.2200   34.3160   35.7650 O.3   202  IDS202     -0.2179
    543  O5       -29.0670   34.7260   35.6010 O.2   202  IDS202     -0.5047
    544  O5       -29.8620   34.2650   36.0960 O.2   202  IDS202     -0.3047
    545  O5       -29.1180   34.4660   36.1550 O.3   202  IDS202     -0.0383
    546  O5       -29.0880   34.5060   36.1770 O.3   202  IDS202     -0.4105
    547  O5       -28.7980   34.8750   36.2070 O.2   202  IDS202      0.0000
    548  O5       -28.5510   34.3040   35.7630 O.2   202  IDS202     -0.5047
    549  O5       -28.9520   34.6650   36.3430 O.2   202  IDS202      0.0000
    550  O5       -28.8020   34.4470   36.1070 O.2   202  IDS202      0.0000
    551  O5       -29.2320   34.6050   36.4350 O.3   202  IDS202     -0.2203
    552  O5       -29.2280   34.8330   36.0640 O.2   202  IDS202      0.0000
    553  O5       -28.9140   34.8540   36.5480 O.3   202  IDS202     -0.0717
    554  O5       -29.6890   34.9760   36.3900 O.3   202  IDS202     -0.4105
    555  O5       -29.5360   34.7580   36.9470 O.3   202  IDS202     -0.2371
    556  O5       -28.5300   34.0840   35.9060 O.2   202  IDS202     -0.3047
    557  O5       -28.9080   34.6980   36.4610 O.3   202  IDS202     -0.0383
    558  O5       -28.7780   34.5150   36.2220 O.3   202  IDS202     -0.2203
    559  O5       -29.0880   34.8600   36.6010 O.3   202  IDS202     -0.2501
    560  O5       -28.5990   34.4870   36.7790 O.3   202  IDS202     -0.2179
    561  O69      -25.8590   31.1160   33.4030 O.3   201  LVZ201     -0.2680
    562  O69      -25.0880   30.8770   33.2760 O.3   201  LVZ201     -0.4105
    563  O69      -25.7740   30.9570   32.3600 O.3   201  LVZ201     -0.0433
    564  O69      -25.4900   30.8700   33.1640 O.2   201  LVZ201      0.0000
    565  O69      -25.5150   30.8500   33.1480 O.3   201  LVZ201     -0.0025
    566  O69      -24.8470   30.8540   33.2210 O.3   201  LVZ201     -0.2179
    567  O69      -25.1240   30.7170   33.2670 O.2   201  LVZ201      0.0000
    568  O69      -24.7180   30.6220   32.8990 O.3   201  LVZ201     -0.0359
    569  O69      -25.3880   30.8280   33.5070 O.3   201  LVZ201     -0.2501
    570  O69      -25.3260   30.4930   33.2080 O.3   201  LVZ201     -0.0001
    571  O69      -25.8730   30.6410   32.8180 O.3   201  LVZ201     -0.2184
    572  O69      -25.4920   31.2960   33.0030 O.3   201  LVZ201     -0.2501
    573  O69      -25.3930   31.0880   32.9650 O.3   201  LVZ201     -0.2179
    574  O69      -25.8770   31.1250   33.4270 O.3   201  LVZ201     -0.2377
    575  O69      -25.5570   31.1810   33.4380 O.3   201  LVZ201     -0.2374
    576  O69      -25.0220   30.3470   32.9250 O.3   201  LVZ201     -0.0025
    577  O69      -25.1520   30.9810   33.2860 O.3   201  LVZ201     -0.0359
    578  O69      -24.2900   31.1070   34.2330 O.3   201  LVZ201     -0.2528
    579  O69      -24.6580   31.5330   34.3480 O.3   201  LVZ201     -0.2528
    580  O69      -24.8100   31.6220   34.2090 O.3   201  LVZ201     -0.4105
    581  C29      -28.5780   29.8580   37.5040 C.3   201  LVZ201      0.1078
    582  C29      -28.2790   29.5600   37.0210 C.3   201  LVZ201     -0.0776
    583  C29      -28.1870   30.0350   36.8550 C.3   201  LVZ201     -0.0776
    584  C29      -28.1280   29.6490   37.2560 C.3   201  LVZ201     -0.0261
    585  C29      -28.2660   29.7610   37.4510 C.3   201  LVZ201     -0.0655
    586  C29      -28.2020   29.6940   37.0380 C.3   201  LVZ201     -0.0588
    587  C29      -28.3210   29.9810   37.0750 C.3   201  LVZ201     -0.0500
    588  C29      -27.7140   29.7060   37.1050 C.3   201  LVZ201     -0.0438
    589  C29      -28.2860   29.6840   37.7270 C.3   201  LVZ201     -0.0655
    590  C29      -28.2950   29.6420   37.5160 C.3   201  LVZ201     -0.0776
    591  C29      -28.2770   29.7170   37.3020 C.3   201  LVZ201     -0.0776
    592  C29      -28.5270   29.9080   36.9580 C.1   201  LVZ201     -0.1225
    593  C29      -27.9790   29.9830   37.5210 C.3   201  LVZ201     -0.0438
    594  C29      -28.6140   29.9960   37.3610 C.3   201  LVZ201     -0.0648
    595  C29      -28.3020   30.0040   37.6560 C.3   201  LVZ201     -0.0655
    596  C29      -27.7810   29.1410   36.8880 C.3   201  LVZ201     -0.0650
    597  C29      -28.1730   29.5870   37.2870 C.1   201  LVZ201     -0.1225
    598  C29      -27.8310   29.6740   37.2050 C.3   201  LVZ201     -0.0655
    599  C29      -28.0850   29.7890   37.3920 C.3   201  LVZ201     -0.0588
    600  C29      -27.7420   29.6370   37.5300 C.3   201  LVZ201     -0.0344
    601  O6S      -24.1210   29.7020   32.7980 O.3   201  LVZ201     -0.0803
    602  O6S      -23.0000   30.1830   32.3470 O.3   201  LVZ201     -0.0209
    603  O6S      -23.9030   30.3730   31.1230 O.3   201  LVZ201     -0.4105
    604  O6S      -23.8010   29.5190   32.3870 O.3   201  LVZ201     -0.0524
    605  O6S      -23.6110   29.7640   32.2020 O.3   201  LVZ201     -0.2179
    606  O6S      -22.6770   30.0660   32.7230 O.3   201  LVZ201     -0.0372
    607  O6S      -23.1610   29.4320   32.5480 O.3   201  LVZ201     -0.0383
    608  O6S      -22.5070   29.5810   32.4710 O.3   201  LVZ201     -0.2179
    609  O6S      -23.4480   29.4540   32.8910 O.3   201  LVZ201     -0.2179
    610  O6S      -23.5650   29.3620   31.8250 O.2   201  LVZ201      0.0000
    611  O6S      -25.2640   28.8100   31.4860 O.2   201  LVZ201     -0.1343
    612  O6S      -23.6290   29.9300   32.4650 O.3   201  LVZ201     -0.2191
    613  O6S      -23.6740   29.8050   31.9290 O.2   201  LVZ201      0.0000
    614  O6S      -23.9490   30.7290   32.1570 O.2   201  LVZ201     -0.2278
    615  O6S      -23.3450   30.3730   32.5860 O.3   201  LVZ201     -0.0973
    616  O6S      -23.0510   29.5560   31.9870 O.3   201  LVZ201     -0.0383
    617  O6S      -22.9670   30.1090   32.8530 O.3   201  LVZ201     -0.2358
    618  O6S      -24.3830   29.8860   32.2890 O.3   201  LVZ201     -0.4105
    619  O6S      -25.1950   30.6450   32.2640 O.3   201  LVZ201     -0.0330
    620  O6S      -23.8530   31.1170   32.1600 O.2   201  LVZ201      0.0000
    621  H4       -32.4120   35.6870   35.3230 H     202  IDS202      0.0652
    622  H4       -32.1610   35.5390   34.7080 H     202  IDS202      0.0000
    623  H4       -32.0420   35.9500   34.6460 H     202  IDS202      0.0000
    624  H4       -32.5160   35.6550   34.4290 H     202  IDS202      0.0000
    625  H4       -31.9190   35.6440   34.7450 H     202  IDS202      0.0230
    626  H4       -31.4990   35.9010   34.3540 H     202  IDS202      0.0000
    627  H4       -31.4210   36.1010   34.3390 H     202  IDS202      0.0000
    628  H4       -31.3050   35.6800   34.4110 H     202  IDS202      0.0230
    629  H4       -31.7880   35.8960   35.2650 H     202  IDS202      0.0000
    630  H4       -31.2530   35.6460   34.2970 H     202  IDS202      0.0000
    631  H4       -31.3820   36.0040   34.3170 H     202  IDS202      0.0000
    632  H4       -31.8820   36.0670   34.7520 H     202  IDS202      0.0230
    633  H4       -31.5980   35.9140   35.0210 H     202  IDS202      0.0000
    634  H4       -32.1510   36.2050   34.6560 H     202  IDS202      0.0000
    635  H4       -32.2720   36.1690   35.6410 H     202  IDS202      0.0000
    636  H4       -31.3520   35.0510   34.6100 H     202  IDS202      0.0000
    637  H4       -31.8100   35.7790   35.1030 H     202  IDS202      0.0000
    638  H4       -31.9010   35.0660   35.0910 H     202  IDS202      0.0000
    639  H4       -32.1590   35.5900   35.9080 H     202  IDS202      0.0000
    640  H4       -31.6320   35.5140   35.8430 H     202  IDS202      0.0329
    641  O6       -36.1580   36.1160   36.4660 O.3   203  SGN203     -0.2644
    642  O6       -35.6090   36.0890   37.1050 O.3   203  SGN203      0.0000
    643  O6       -35.4970   36.8680   35.9070 O.2   203  SGN203     -0.5073
    644  O6       -36.3250   36.9580   36.7140 O.2   203  SGN203     -0.2313
    645  O6       -35.4910   36.4470   36.9190 O.3   203  SGN203      0.0000
    646  O6       -35.3800   36.3490   37.1340 O.2   203  SGN203     -0.1916
    647  O6       -35.3690   36.1290   36.6540 O.3   203  SGN203      0.0000
    648  O6       -34.7620   36.3640   36.0480 O.2   203  SGN203     -0.5073
    649  O6       -35.2410   37.0330   37.2650 O.3   203  SGN203     -0.2027
    650  O6       -35.4840   37.5520   37.3770 O.3   203  SGN203     -0.0381
    651  O6       -35.5530   37.1760   37.4970 O.3   203  SGN203     -0.0356
    652  O6       -35.7860   37.1380   36.2990 O.3   203  SGN203     -0.2203
    653  O6       -35.5880   37.1310   35.9080 O.3   203  SGN203     -0.0717
    654  O6       -36.0220   37.4410   35.8200 O.3   203  SGN203     -0.2203
    655  O6       -35.7540   37.6210   37.6870 O.3   203  SGN203     -0.2179
    656  O6       -35.5680   35.6700   36.3750 O.3   203  SGN203     -0.1059
    657  O6       -35.5060   36.1720   36.3430 O.3   203  SGN203     -0.2338
    658  O6       -35.6860   35.9020   36.2800 O.3   203  SGN203     -0.4105
    659  O6       -35.0830   36.2730   38.2490 O.3   203  SGN203     -0.0013
    660  O6       -34.9130   36.4510   38.5880 O.3   203  SGN203     -0.0001
    661  S19      -28.9530   28.1620   39.4000 S.3   201  LVZ201     -0.0198
    662  S19      -28.5910   27.7810   38.9270 S.3   201  LVZ201     -0.1960
    663  S19      -28.4520   28.4190   39.0480 S.3   201  LVZ201     -0.0984
    664  S19      -28.2640   28.1950   39.3550 S.3   201  LVZ201     -0.0164
    665  S19      -28.5340   28.1020   39.3230 S.3   201  LVZ201      0.0032
    666  S19      -28.8420   27.9000   38.8570 S.3   201  LVZ201     -0.1960
    667  S19      -28.6720   28.0730   38.8540 S.3   201  LVZ201     -0.0010
    668  S19      -28.1040   28.3050   39.2940 S.3   201  LVZ201     -0.0970
    669  S19      -28.7860   28.1200   39.6920 S.3   201  LVZ201     -0.0151
    670  S19      -29.1840   28.1440   39.4740 S.3   201  LVZ201     -0.0983
    671  S19      -28.6970   27.8960   39.1980 S.3   201  LVZ201     -0.1960
    672  S19      -28.9650   28.3970   39.0180 S.2   201  LVZ201     -0.0000
    673  S19      -28.4880   28.3630   39.3780 S.3   201  LVZ201     -0.0970
    674  S19      -29.0440   28.3300   39.3250 S.3   201  LVZ201     -0.0151
    675  S19      -28.5440   28.3420   39.5540 S.3   201  LVZ201     -0.0983
    676  S19      -28.1990   27.5670   38.9500 S.3   201  LVZ201     -0.0983
    677  S19      -28.4670   27.8670   39.1340 S.3   201  LVZ201     -0.0154
    678  S19      -28.2790   27.6900   38.8900 S.3   201  LVZ201      0.1142
    679  S19      -28.6940   27.9230   39.1680 S.3   201  LVZ201      0.0032
    680  S19      -28.2440   27.8200   39.3730 S.3   201  LVZ201      0.1142
    681  C5       -34.5400   38.0030   36.5950 C.3   203  SGN203      0.1145
    682  C5       -33.7330   37.7480   37.2010 C.3   203  SGN203     -0.0776
    683  C5       -33.6810   38.3300   36.4450 C.3   203  SGN203     -0.0650
    684  C5       -34.2290   38.0820   36.4900 C.1   203  SGN203     -0.1225
    685  C5       -33.4610   38.0320   36.9190 C.3   203  SGN203     -0.0418
    686  C5       -33.5940   37.8560   36.9090 C.3   203  SGN203     -0.0533
    687  C5       -33.6540   37.9900   36.5530 C.3   203  SGN203      0.0414
    688  C5       -32.9550   37.8510   36.1620 C.3   203  SGN203     -0.0624
    689  C5       -33.2470   38.3070   36.6080 C.3   203  SGN203     -0.0063
    690  C5       -33.2150   38.0260   36.5030 C.3   203  SGN203     -0.0444
    691  C5       -33.6230   37.8420   36.2740 C.3   203  SGN203     -0.0533
    692  C5       -33.7210   38.4290   36.7960 C.3   203  SGN203     -0.0650
    693  C5       -33.6460   38.5020   36.5390 C.2   203  SGN203      0.1273
    694  C5       -34.0210   38.6860   36.4900 C.3   203  SGN203     -0.0063
    695  C5       -33.7960   39.0180   37.5540 C.3   203  SGN203     -0.0776
    696  C5       -33.5540   36.9620   36.5480 C.3   203  SGN203     -0.0776
    697  C5       -33.8150   37.7170   37.1340 C.3   203  SGN203     -0.0776
    698  C5       -33.9600   37.4660   36.9800 C.3   203  SGN203     -0.0776
    699  C5       -33.5290   38.1370   38.1410 C.2   203  SGN203      0.1071
    700  C5       -33.3180   38.1220   38.0790 C.2   203  SGN203     -0.1058
    701  O59      -26.7490   30.3170   36.0460 O.3   201  LVZ201     -0.3414
    702  O59      -26.2350   29.8920   35.6050 O.2   201  LVZ201      0.0000
    703  O59      -26.5610   30.0870   35.0320 O.3   201  LVZ201     -0.4105
    704  O59      -26.4810   29.8880   35.5020 O.3   201  LVZ201     -0.0359
    705  O59      -26.3840   29.9940   35.8050 O.3   201  LVZ201     -0.4105
    706  O59      -26.2660   29.8840   35.5290 O.3   201  LVZ201     -0.4105
    707  O59      -26.3830   30.1090   35.6470 O.3   201  LVZ201     -0.2504
    708  O59      -25.9240   29.6830   35.4630 O.2   201  LVZ201      0.0000
    709  O59      -26.4700   29.7260   36.0360 O.3   201  LVZ201     -0.2179
    710  O59      -26.2670   29.4800   36.2040 O.3   201  LVZ201     -0.4105
    711  O59      -26.6480   29.5140   35.4290 O.3   201  LVZ201     -0.2203
    712  O59      -26.6670   30.1230   35.3420 O.3   201  LVZ201     -0.2407
    713  O59      -26.2240   30.1000   35.7500 O.3   201  LVZ201     -0.2179
    714  O59      -26.9540   30.0390   35.6360 O.3   201  LVZ201     -0.2203
    715  O59      -26.7470   30.0460   35.7590 O.3   201  LVZ201     -0.0049
    716  O59      -26.0880   29.4760   35.1830 O.3   201  LVZ201     -0.2203
    717  O59      -26.3710   29.8680   35.6890 O.3   201  LVZ201     -0.0717
    718  O59      -25.9450   29.9640   35.7330 O.3   201  LVZ201     -0.2203
    719  O59      -26.3290   30.0350   35.7890 O.3   201  LVZ201     -0.0359
    720  O59      -26.2690   29.6030   35.5560 O.3   201  LVZ201     -0.0717
    721  H39      -30.0370   30.7540   36.0730 H     201  LVZ201      0.0638
    722  H39      -29.3630   30.0770   35.2190 H     201  LVZ201      0.0000
    723  H39      -29.9040   30.6500   35.6540 H     201  LVZ201      0.0000
    724  H39      -29.7980   30.1790   36.0490 H     201  LVZ201      0.0000
    725  H39      -29.5870   30.1640   35.7920 H     201  LVZ201      0.0000
    726  H39      -29.5780   30.5050   35.5570 H     201  LVZ201      0.0000
    727  H39      -29.5890   30.9830   35.5720 H     201  LVZ201      0.0000
    728  H39      -29.2530   29.9350   35.6900 H     201  LVZ201      0.0000
    729  H39      -29.6570   30.3410   36.2250 H     201  LVZ201      0.0000
    730  H39      -29.3510   30.3370   35.8400 H     201  LVZ201      0.0000
    731  H39      -29.7000   30.9340   36.2270 H     201  LVZ201      0.0265
    732  H39      -29.9540   30.5930   35.4440 H     201  LVZ201      0.0000
    733  H39      -29.4030   30.6560   36.0930 H     201  LVZ201      0.0304
    734  H39      -30.1410   30.6570   35.8670 H     201  LVZ201      0.0000
    735  H39      -29.9000   30.8730   36.5790 H     201  LVZ201      0.0265
    736  H39      -29.3340   29.8200   35.4700 H     201  LVZ201      0.0000
    737  H39      -29.7100   30.3180   36.0720 H     201  LVZ201      0.0000
    738  H39      -29.2010   30.4050   35.8370 H     201  LVZ201      0.0194
    739  H39      -29.5630   30.8900   36.3770 H     201  LVZ201      0.0000
    740  H39      -29.3500   30.8680   36.5140 H     201  LVZ201      0.0268
    741  O5S      -38.1410   35.9200   37.7030 O.3   203  SGN203     -0.0729
    742  O5S      -37.3570   35.9360   38.7880 O.2   203  SGN203      0.0000
    743  O5S      -37.7370   37.0650   36.7060 O.3   203  SGN203     -0.4105
    744  O5S      -37.5770   37.8590   38.6660 O.3   203  SGN203     -0.0359
    745  O5S      -37.3950   36.4050   38.5130 O.2   203  SGN203      0.0000
    746  O5S      -36.9290   36.9020   38.9670 O.3   203  SGN203     -0.0871
    747  O5S      -37.2920   36.2080   38.0170 O.3   203  SGN203     -0.2203
    748  O5S      -37.1540   36.2770   36.3910 O.3   203  SGN203     -0.1498
    749  O5S      -37.5080   37.7780   37.0360 O.3   203  SGN203     -0.1339
    750  O5S      -37.8920   38.0600   37.3490 O.3   203  SGN203     -0.0210
    751  O5S      -37.3940   38.5720   38.0570 O.3   203  SGN203     -0.0039
    752  O5S      -37.9950   37.8320   35.9800 O.3   203  SGN203     -0.4105
    753  O5S      -37.9240   37.7960   36.2320 O.2   203  SGN203      0.0000
    754  O5S      -38.2050   36.6800   36.7770 O.3   203  SGN203     -0.2382
    755  O5S      -37.4630   37.8390   35.9910 O.2   203  SGN203      0.0000
    756  O5S      -37.8560   36.2980   36.0870 O.3   203  SGN203     -0.2203
    757  O5S      -37.4610   36.7410   34.9930 O.3   203  SGN203     -0.2203
    758  O5S      -37.7690   36.4550   35.4110 O.3   203  SGN203     -0.0717
    759  O5S      -36.3450   34.3030   37.9570 O.3   203  SGN203     -0.4105
    760  O5S      -37.3910   36.4540   38.6060 O.3   203  SGN203     -0.0871
    761  H29      -28.0920   30.3100   38.3690 H     201  LVZ201      0.0554
    762  H29      -27.7270   30.1290   37.7690 H     201  LVZ201      0.0260
    763  H29      -27.5050   30.5680   37.5190 H     201  LVZ201      0.0000
    764  H29      -27.4680   30.2760   37.8550 H     201  LVZ201      0.0000
    765  H29      -27.7160   30.3820   38.1590 H     201  LVZ201      0.0000
    766  H29      -27.7180   30.2220   37.8590 H     201  LVZ201      0.0000
    767  H29      -27.6530   30.4100   37.8220 H     201  LVZ201      0.0000
    768  H29      -27.1300   30.2810   37.8240 H     201  LVZ201      0.0000
    769  H29      -27.7120   30.3760   38.3440 H     201  LVZ201      0.0000
    770  H29      -27.8200   30.1660   38.3450 H     201  LVZ201      0.0000
    771  H29      -27.4110   29.9360   37.9260 H     201  LVZ201      0.0000
    772  H29      -27.9560   30.4080   37.7390 H     201  LVZ201      0.0000
    773  H29      -27.2630   30.3950   38.2320 H     201  LVZ201      0.0000
    774  H29      -27.9150   30.4070   38.0890 H     201  LVZ201      0.0000
    775  H29      -27.5330   30.4740   38.2700 H     201  LVZ201      0.0000
    776  H29      -27.1190   29.5670   37.6420 H     201  LVZ201      0.0000
    777  H29      -27.5170   29.9380   38.0840 H     201  LVZ201      0.0000
    778  H29      -27.2560   30.1840   37.9780 H     201  LVZ201      0.0000
    779  H29      -27.3340   29.9400   38.1680 H     201  LVZ201      0.0000
    780  H29      -26.9140   29.9120   38.1830 H     201  LVZ201      0.0000
    781  C3       -32.9600   39.7770   37.2610 C.3   203  SGN203      0.1045
    782  C3       -31.8330   39.3040   37.6160 C.3   203  SGN203     -0.0776
    783  C3       -31.6290   39.7760   37.0590 C.3   203  SGN203     -0.0528
    784  C3       -32.0960   39.4750   37.0560 C.3   203  SGN203     -0.0624
    785  C3       -31.6690   39.7360   37.0700 C.3   203  SGN203     -0.0653
    786  C3       -31.8510   39.5590   37.3500 C.3   203  SGN203     -0.0390
    787  C3       -32.0790   39.8870   37.2200 C.3   203  SGN203     -0.0502
    788  C3       -31.1370   39.5240   36.9540 C.3   203  SGN203     -0.0624
    789  C3       -31.2910   39.8760   37.2630 C.3   203  SGN203     -0.0650
    790  C3       -31.3310   39.6710   37.0670 C.3   203  SGN203     -0.0776
    791  C3       -32.0340   39.6170   36.8970 C.3   203  SGN203     -0.0557
    792  C3       -31.8000   40.0720   37.2100 C.3   203  SGN203     -0.0776
    793  C3       -31.7960   40.0660   37.2020 C.3   203  SGN203     -0.0776
    794  C3       -32.0470   40.0880   37.1540 C.3   203  SGN203     -0.0776
    795  C3       -31.7180   40.5080   37.7040 C.3   203  SGN203      0.0330
    796  C3       -31.8380   38.6170   37.6960 C.3   203  SGN203     -0.0776
    797  C3       -32.2360   39.6350   37.7570 C.3   203  SGN203     -0.0624
    798  C3       -32.1130   39.2200   37.5270 C.3   203  SGN203     -0.0439
    799  C3       -31.8000   40.0170   37.9590 C.3   203  SGN203      0.1788
    800  C3       -31.5180   40.0800   37.9130 C.3   203  SGN203     -0.0776
    801  C1       -27.3920   27.2920   35.0650 C.3   201  LVZ201      0.0561
    802  C1       -26.6010   26.9800   34.6710 C.3   201  LVZ201     -0.0653
    803  C1       -27.3840   27.0950   34.7440 C.3   201  LVZ201     -0.0776
    804  C1       -27.2710   27.0320   34.7330 C.3   201  LVZ201     -0.0653
    805  C1       -27.3150   26.8500   35.3450 C.3   201  LVZ201     -0.0776
    806  C1       -27.1580   26.8210   34.6870 C.3   201  LVZ201     -0.0390
    807  C1       -27.3320   27.2510   34.5890 C.3   201  LVZ201     -0.0653
    808  C1       -26.9810   26.6190   35.0920 C.3   201  LVZ201     -0.0681
    809  C1       -27.6280   27.1900   34.9360 C.3   201  LVZ201     -0.0562
    810  C1       -27.3450   26.7960   35.3460 C.3   201  LVZ201     -0.0681
    811  C1       -28.4720   27.3850   34.1220 C.3   201  LVZ201     -0.0655
    812  C1       -27.5880   27.0860   34.6060 C.3   201  LVZ201     -0.0300
    813  C1       -27.3300   27.1790   34.9140 C.3   201  LVZ201      0.0522
    814  C1       -27.9150   27.2060   34.9540 C.3   201  LVZ201     -0.0629
    815  C1       -28.4300   27.5330   34.9450 C.2   201  LVZ201     -0.1058
    816  C1       -26.6000   26.9650   33.9010 C.3   201  LVZ201     -0.0536
    817  C1       -27.3130   26.9810   34.6710 C.3   201  LVZ201     -0.0776
    818  C1       -26.6630   27.6420   34.1230 C.3   201  LVZ201     -0.0653
    819  C1       -27.8230   27.3690   34.6190 C.3   201  LVZ201     -0.0562
    820  C1       -28.0890   27.0140   34.9650 C.2   201  LVZ201     -0.1058
    821  O3S      -29.6170   33.8770   31.2030 O.3   202  IDS202     -0.2613
    822  O3S      -28.0120   32.8330   31.4760 O.3   202  IDS202     -0.0717
    823  O3S      -28.9650   33.0560   30.4870 O.3   202  IDS202     -0.4105
    824  O3S      -28.8570   33.1580   31.2960 O.3   202  IDS202     -0.2203
    825  O3S      -28.7200   32.8490   31.3970 O.2   202  IDS202      0.0000
    826  O3S      -25.8310   34.8890   31.2630 O.3   202  IDS202     -0.0383
    827  O3S      -26.0730   34.1860   31.6280 O.3   202  IDS202     -0.2179
    828  O3S      -27.6850   32.4960   31.0010 O.3   202  IDS202     -0.2203
    829  O3S      -28.0630   32.5200   32.0380 O.3   202  IDS202     -0.2203
    830  O3S      -25.4660   34.7290   31.1640 O.3   202  IDS202     -0.0383
    831  O3S      -25.0820   34.4560   32.9090 O.2   202  IDS202     -0.1067
    832  O3S      -29.5560   33.9540   30.8770 O.3   202  IDS202     -0.2359
    833  O3S      -27.8250   33.7780   31.5660 O.3   202  IDS202     -0.2292
    834  O3S      -28.6690   33.5630   31.4980 O.3   202  IDS202     -0.0717
    835  O3S      -28.8520   32.9350   32.2790 O.3   202  IDS202     -0.4105
    836  O3S      -28.4610   35.7570   30.7890 O.3   202  IDS202     -0.4105
    837  O3S      -28.8820   33.8000   31.3450 O.3   202  IDS202     -0.1677
    838  O3S      -27.0440   33.5870   31.2190 O.2   202  IDS202     -0.1158
    839  O3S      -28.4980   33.3620   31.8080 O.3   202  IDS202     -0.2203
    840  O3S      -28.5770   33.1830   31.8060 O.2   202  IDS202      0.0000
    841  O4S      -36.5310   34.1530   37.6970 O.3   203  SGN203     -0.0753
    842  O4S      -36.3100   33.9810   38.0320 O.3   203  SGN203     -0.4105
    843  O4S      -36.8890   34.9270   35.9600 O.3   203  SGN203     -0.1352
    844  O4S      -37.5570   35.5140   38.3190 O.3   203  SGN203     -0.2179
    845  O4S      -36.3300   34.3610   37.9170 O.2   203  SGN203      0.0000
    846  O4S      -36.6680   34.6450   38.1490 O.2   203  SGN203      0.0000
    847  O4S      -36.1640   34.1200   37.9280 O.3   203  SGN203     -0.0522
    848  O4S      -35.7000   34.4350   37.1400 O.3   203  SGN203     -0.2191
    849  O4S      -36.7470   35.5880   36.2380 O.3   203  SGN203     -0.2027
    850  O4S      -37.0060   36.1830   35.9840 O.3   203  SGN203     -0.2371
    851  O4S      -37.7160   36.8420   36.5200 O.3   203  SGN203     -0.1677
    852  O4S      -37.5190   35.5090   36.0780 O.2   203  SGN203      0.0000
    853  O4S      -37.4180   35.6020   35.5360 O.2   203  SGN203      0.0000
    854  O4S      -36.4830   35.0330   36.1970 O.3   203  SGN203     -0.2359
    855  O4S      -37.1240   35.7900   37.2040 O.3   203  SGN203     -0.0037
    856  O4S      -37.2710   34.1610   37.0110 O.3   203  SGN203     -0.2203
    857  O4S      -36.8710   34.4730   35.4240 O.3   203  SGN203     -0.2203
    858  O4S      -37.2330   34.1150   35.5770 O.3   203  SGN203     -0.0717
    859  O4S      -36.3720   36.0300   36.3080 O.3   203  SGN203     -0.1342
    860  O4S      -36.3020   35.6870   36.7170 O.3   203  SGN203     -0.0899
    861  C1       -28.9510   34.3580   35.1730 C.3   202  IDS202      0.1911
    862  C1       -28.6560   33.8690   34.5460 C.3   202  IDS202     -0.0345
    863  C1       -28.8250   34.1430   34.3450 C.3   202  IDS202     -0.0776
    864  C1       -29.1380   33.8340   34.9120 C.3   202  IDS202     -0.0392
    865  C1       -28.5260   33.9680   34.8550 C.3   202  IDS202     -0.0655
    866  C1       -28.3020   34.1630   34.9700 C.3   202  IDS202     -0.0554
    867  C1       -28.1440   34.4200   34.9350 C.3   202  IDS202     -0.0655
    868  C1       -28.0460   33.6690   34.4470 C.3   202  IDS202     -0.0776
    869  C1       -28.5200   33.9590   35.1900 C.1   202  IDS202     -0.1225
    870  C1       -28.0000   33.8480   35.0630 C.2   202  IDS202     -0.1026
    871  C1       -28.2080   34.0770   35.5080 C.2   202  IDS202      0.1071
    872  C1       -28.6820   34.2960   34.7740 C.3   202  IDS202     -0.0653
    873  C1       -28.2370   34.3230   35.3830 C.3   202  IDS202     -0.0429
    874  C1       -29.0540   34.3830   35.2010 C.3   202  IDS202      0.0456
    875  C1       -28.9850   34.2860   35.6630 C.3   202  IDS202      0.2436
    876  C1       -28.1510   33.4400   34.6530 C.3   202  IDS202     -0.0776
    877  C1       -28.3610   34.1090   35.2050 C.3   202  IDS202     -0.0588
    878  C1       -28.3660   33.9860   34.8870 C.2   202  IDS202     -0.0911
    879  C1       -28.6840   34.1980   35.3230 C.3   202  IDS202      0.0453
    880  C1       -28.2290   34.1250   35.4180 C.1   202  IDS202     -0.1225
    881  O2       -28.5980   35.2610   32.9410 O.3   202  IDS202     -0.2348
    882  O2       -28.4940   35.0040   32.3460 O.3   202  IDS202     -0.4105
    883  O2       -28.7230   34.8470   32.0680 O.2   202  IDS202     -0.2289
    884  O2       -28.4380   34.9460   32.8360 O.3   202  IDS202     -0.2201
    885  O2       -28.2090   34.9370   32.5490 O.3   202  IDS202     -0.4105
    886  O2       -27.4310   35.3630   33.0790 O.3   202  IDS202     -0.2203
    887  O2       -27.4220   35.6600   32.9210 O.2   202  IDS202      0.0000
    888  O2       -27.5260   34.5270   32.3560 O.3   202  IDS202     -0.4105
    889  O2       -28.1420   34.8010   32.9820 O.3   202  IDS202      0.0000
    890  O2       -26.9730   34.7480   33.0150 O.3   202  IDS202     -0.0717
    891  O2       -26.9570   35.5280   34.0050 O.3   202  IDS202     -0.4105
    892  O2       -28.2270   35.2400   32.5220 O.3   202  IDS202     -0.4105
    893  O2       -27.4330   35.4280   33.3560 O.2   202  IDS202      0.0000
    894  O2       -28.2370   35.2090   33.1470 O.3   202  IDS202      0.0000
    895  O2       -28.7590   35.0970   33.3780 O.2   202  IDS202     -0.3007
    896  O2       -27.5360   34.6580   32.6780 O.3   202  IDS202     -0.2203
    897  O2       -27.8560   35.0700   33.1080 O.3   202  IDS202      0.0000
    898  O2       -28.3630   35.0820   32.6710 O.3   202  IDS202     -0.4105
    899  O2       -28.7400   35.3210   33.1570 O.3   202  IDS202     -0.2084
    900  O2       -28.2870   35.0880   33.2080 O.3   202  IDS202     -0.0693
    901  HN9      -29.4790   28.0900   37.3260 H     201  LVZ201      0.1485
    902  HN9      -29.5660   27.8990   36.9600 H     201  LVZ201      0.0000
    903  HN9      -29.7200   28.5540   37.2580 H     201  LVZ201      0.0000
    904  HN9      -29.3730   28.0190   37.6080 H     201  LVZ201      0.0000
    905  HN9      -29.5900   28.1370   37.6410 H     201  LVZ201      0.0000
    906  HN9      -29.6280   28.1910   36.9140 H     201  LVZ201      0.0000
    907  HN9      -29.8450   28.7610   37.0600 H     201  LVZ201      0.0000
    908  HN9      -29.1170   28.1640   37.4220 H     201  LVZ201      0.1146
    909  HN9      -29.5380   28.2160   37.7390 H     201  LVZ201      0.2112
    910  HN9      -29.7730   28.1570   37.3730 H     201  LVZ201      0.0000
    911  HN9      -30.0470   28.4440   37.6860 H     201  LVZ201      0.0000
    912  HN9      -29.8040   28.2010   37.1660 H     201  LVZ201      0.0000
    913  HN9      -29.1930   28.4870   37.4180 H     201  LVZ201      0.1256
    914  HN9      -29.8340   28.3600   37.5220 H     201  LVZ201      0.0000
    915  HN9      -29.6910   28.5680   37.8370 H     201  LVZ201      0.0042
    916  HN9      -29.0730   27.4740   37.1430 H     201  LVZ201      0.0000
    917  HN9      -29.2070   27.9120   37.1740 H     201  LVZ201      0.0000
    918  HN9      -29.4490   28.2390   37.1810 H     201  LVZ201      0.0000
    919  HN9      -29.6860   28.3960   37.3830 H     201  LVZ201      0.0000
    920  HN9      -29.2170   28.3570   37.6750 H     201  LVZ201      0.0000
    921  O49      -29.2960   32.8810   35.2870 O.3   201  LVZ201     -0.3401
    922  O49      -28.7870   32.3970   34.5010 O.3   201  LVZ201     -0.0383
    923  O49      -29.1100   32.6980   34.3460 O.3   201  LVZ201     -0.2179
    924  O49      -29.1800   32.4060   34.7400 O.3   201  LVZ201     -0.0383
    925  O49      -28.8000   32.5190   34.7490 O.3   201  LVZ201     -0.2179
    926  O49      -28.4050   32.6390   34.5960 O.3   201  LVZ201     -0.0383
    927  O49      -28.3730   33.0040   34.6510 O.2   201  LVZ201      0.0000
    928  O49      -28.4250   32.2450   34.4340 O.3   201  LVZ201     -0.2179
    929  O49      -28.8340   32.4730   35.2610 O.3   201  LVZ201     -0.2179
    930  O49      -28.2890   32.3710   34.9370 O.3   201  LVZ201     -0.0383
    931  O49      -28.4410   32.6710   35.1680 O.3   201  LVZ201     -0.2179
    932  O49      -29.0350   32.8930   34.6270 O.3   201  LVZ201     -0.0717
    933  O49      -28.5250   32.8870   35.0390 O.2   201  LVZ201      0.0000
    934  O49      -29.2800   32.9630   35.0850 O.3   201  LVZ201     -0.2203
    935  O49      -29.1660   32.8420   35.4070 O.2   201  LVZ201      0.0000
    936  O49      -28.5680   32.0490   34.5690 O.3   201  LVZ201     -0.2179
    937  O49      -28.8240   32.6440   35.0740 O.3   201  LVZ201     -0.2203
    938  O49      -28.3920   32.5590   34.8150 O.3   201  LVZ201     -0.0383
    939  O49      -28.7690   32.7350   35.3710 O.2   201  LVZ201      0.0000
    940  O49      -28.4770   32.6970   35.1870 O.3   201  LVZ201     -0.0383
    941  C4       -31.4430   36.1440   35.5230 C.3   202  IDS202      0.1213
    942  C4       -31.1120   35.6350   34.9850 C.3   202  IDS202     -0.0554
    943  C4       -31.0040   36.1020   34.9400 C.3   202  IDS202     -0.0562
    944  C4       -31.5180   35.7450   34.8580 C.3   202  IDS202     -0.0653
    945  C4       -30.9310   35.8250   35.1680 C.3   202  IDS202     -0.0450
    946  C4       -30.6240   36.0530   34.9860 C.3   202  IDS202     -0.0292
    947  C4       -30.5720   36.2270   35.0120 C.3   202  IDS202     -0.0562
    948  C4       -30.2540   35.7320   34.6940 C.2   202  IDS202     -0.0517
    949  C4       -30.7170   35.9480   35.4590 C.3   202  IDS202     -0.0308
    950  C4       -30.3310   35.8830   34.8270 C.1   202  IDS202     -0.1225
    951  C4       -30.5390   36.0590   35.0070 C.2   202  IDS202     -0.0521
    952  C4       -30.8720   36.2170   35.1330 C.3   202  IDS202     -0.0613
    953  C4       -30.6000   36.1690   35.3780 C.3   202  IDS202      0.0442
    954  C4       -31.2180   36.3090   35.2090 C.3   202  IDS202     -0.0653
    955  C4       -31.2660   36.3140   36.0320 C.3   202  IDS202      0.0891
    956  C4       -30.3950   35.2990   35.0690 C.2   202  IDS202     -0.0953
    957  C4       -30.8300   35.9510   35.5470 C.3   202  IDS202     -0.0238
    958  C4       -30.9360   35.5070   35.3440 C.3   202  IDS202     -0.0473
    959  C4       -31.1010   35.8320   35.9990 C.3   202  IDS202     -0.0083
    960  C4       -30.6470   35.8840   36.1280 C.3   202  IDS202     -0.0415
    961  S2       -36.7420   35.5940   37.7660 S.3   203  SGN203      0.2849
    962  S2       -36.1030   35.3750   38.3880 S.3   203  SGN203     -0.1137
    963  S2       -36.6100   36.1430   36.6810 S.3   203  SGN203      0.1000
    964  S2       -36.7530   36.7030   38.2590 S.3   203  SGN203      0.3115
    965  S2       -36.1530   35.7630   38.2070 S.3   203  SGN203     -0.1137
    966  S2       -36.0010   35.8730   38.4970 S.3   203  SGN203     -0.1137
    967  S2       -36.0500   35.5550   37.9740 S.3   203  SGN203     -0.1960
    968  S2       -35.8740   35.8640   36.9890 S.O   203  SGN203      0.3632
    969  S2       -36.7050   36.5820   37.2650 S.3   203  SGN203      0.0179
    970  S2       -36.9980   36.9300   37.2470 S.3   203  SGN203     -0.0960
    971  S2       -37.1160   37.2040   37.7820 S.3   203  SGN203     -0.0945
    972  S2       -37.2370   36.7920   36.6640 S.3   203  SGN203      0.0150
    973  S2       -37.0250   36.7090   36.4050 S.3   203  SGN203      0.1456
    974  S2       -36.7400   36.3690   36.7480 S.O   203  SGN203      0.1816
    975  S2       -37.1880   37.2050   37.2620 S.3   203  SGN203      0.0005
    976  S2       -36.9570   35.5510   37.0210 S.3   203  SGN203     -0.0785
    977  S2       -36.9730   35.7930   35.9540 S.3   203  SGN203      0.1290
    978  S2       -37.1470   35.4230   36.1780 S.3   203  SGN203      0.1905
    979  S2       -36.4280   35.7240   37.7280 S.2   203  SGN203      0.2278
    980  S2       -36.2130   35.7400   38.1540 S.3   203  SGN203     -0.1137
    981  N        -30.8080   40.1720   36.0700 N.3   203  SGN203     -0.2070
    982  N        -30.0830   39.6340   35.9680 N.3   203  SGN203     -0.2558
    983  N        -29.8000   40.0570   35.4960 N.2   203  SGN203     -0.0732
    984  N        -30.2610   39.4880   35.5510 N.3   203  SGN203     -0.1790
    985  N        -29.8280   39.7070   35.3470 N.3   203  SGN203     -0.1472
    986  N        -30.0400   40.0810   35.8350 N.pl3 203  SGN203     -0.1705
    987  N        -30.0100   40.1760   35.7900 N.3   203  SGN203     -0.3437
    988  N        -29.0820   39.9350   35.5100 N.pl3 203  SGN203     -0.1871
    989  N        -29.1980   39.9690   35.9600 N.3   203  SGN203     -0.2394
    990  N        -29.3900   39.9510   35.4520 N.2   203  SGN203     -0.1864
    991  N        -29.9770   40.0780   35.5480 N.3   203  SGN203     -0.0832
    992  N        -29.9350   40.1670   35.7330 N.3   203  SGN203     -0.3437
    993  N        -29.7190   40.2290   35.7290 N.2   203  SGN203     -0.0745
    994  N        -30.1290   40.3540   35.5920 N.2   203  SGN203     -0.1865
    995  N        -29.8550   40.2340   35.9710 N.3   203  SGN203     -0.2377
    996  N        -29.7890   39.2690   36.2870 N.3   203  SGN203     -0.3437
    997  N        -30.3440   40.1500   36.2400 N.3   203  SGN203     -0.2211
    998  N        -30.2560   39.4660   35.9450 N.3   203  SGN203     -0.2032
    999  N        -30.1620   39.8230   36.1880 N.3   203  SGN203     -0.1567
   1000  N        -30.0060   39.8930   35.9940 N.3   203  SGN203     -0.1592
   1001  O2       -28.1640   28.3810   35.6170 O.3   201  LVZ201     -0.3469
   1002  O2       -27.5820   27.9640   35.1990 O.3   201  LVZ201     -0.4105
   1003  O2       -28.1690   28.2130   35.2370 O.3   201  LVZ201     -0.0359
   1004  O2       -28.0640   28.0210   35.4440 O.3   201  LVZ201     -0.0383
   1005  O2       -28.0080   28.1110   35.6170 O.3   201  LVZ201     -0.0025
   1006  O2       -27.8120   28.0310   35.2370 O.3   201  LVZ201     -0.2179
   1007  O2       -27.9840   28.4580   35.0890 O.3   201  LVZ201      0.0000
   1008  O2       -27.4980   27.8280   35.7240 O.3   201  LVZ201     -0.4105
   1009  O2       -28.3200   28.1660   35.8130 O.3   201  LVZ201     -0.0383
   1010  O2       -28.0430   27.9560   35.9000 O.3   201  LVZ201     -0.2179
   1011  O2       -28.8020   28.4920   35.0900 O.3   201  LVZ201      0.0000
   1012  O2       -28.2600   28.2190   35.2140 O.3   201  LVZ201     -0.0359
   1013  O2       -27.9400   28.2810   35.7160 O.3   201  LVZ201     -0.2179
   1014  O2       -28.5860   28.3350   35.6380 O.3   201  LVZ201      0.0000
   1015  O2       -28.8850   28.7590   35.5910 O.3   201  LVZ201      0.0000
   1016  O2       -27.4650   27.6200   34.8450 O.3   201  LVZ201     -0.3921
   1017  O2       -27.9680   28.1280   35.3320 O.3   201  LVZ201      0.0000
   1018  O2       -27.6240   28.1810   35.1080 O.3   201  LVZ201      0.0000
   1019  O2       -28.1250   28.6060   35.2540 O.3   201  LVZ201     -0.2179
   1020  O2       -28.3870   28.3000   35.6520 O.3   201  LVZ201     -0.0025
   1021  H1       -32.0880   38.4170   34.2770 H     203  SGN203      0.0927
   1022  H1       -31.9050   37.9550   34.3640 H     203  SGN203      0.0000
   1023  H1       -31.4610   38.4480   33.9450 H     203  SGN203      0.0000
   1024  H1       -31.9320   38.1420   33.8910 H     203  SGN203      0.0000
   1025  H1       -31.5820   38.0560   34.1310 H     203  SGN203      0.0000
   1026  H1       -31.6110   38.3130   34.1900 H     203  SGN203      0.0000
   1027  H1       -31.3770   38.6440   34.1690 H     203  SGN203      0.0000
   1028  H1       -30.5680   38.3960   33.7860 H     203  SGN203      0.0000
   1029  H1       -30.7670   38.3360   34.2730 H     203  SGN203      0.0194
   1030  H1       -30.9970   38.3400   33.8420 H     203  SGN203      0.0000
   1031  H1       -31.1540   38.3150   33.9820 H     203  SGN203      0.0000
   1032  H1       -31.4710   38.6680   34.2370 H     203  SGN203      0.0000
   1033  H1       -31.1010   38.3090   34.2560 H     203  SGN203      0.0000
   1034  H1       -31.6010   38.6870   34.0740 H     203  SGN203      0.0000
   1035  H1       -31.7030   38.7010   34.8890 H     203  SGN203      0.0227
   1036  H1       -31.2150   38.0060   34.3300 H     203  SGN203      0.0566
   1037  H1       -31.6670   38.2360   34.5910 H     203  SGN203      0.0194
   1038  H1       -31.7890   37.7390   34.4480 H     203  SGN203      0.0000
   1039  H1       -31.9230   37.9890   35.0980 H     203  SGN203      0.2563
   1040  H1       -31.7740   37.8890   35.1390 H     203  SGN203      0.0232
   1041  H5       -31.4480   34.3370   36.2690 H     202  IDS202      0.0677
   1042  H5       -31.1590   33.5310   35.2610 H     202  IDS202      0.0000
   1043  H5       -31.0480   34.0400   35.5420 H     202  IDS202      0.0000
   1044  H5       -31.6470   33.6050   35.2580 H     202  IDS202      0.0000
   1045  H5       -31.0580   33.8080   35.5350 H     202  IDS202      0.0000
   1046  H5       -30.8050   33.9630   35.2590 H     202  IDS202      0.0000
   1047  H5       -30.6220   34.1050   35.5020 H     202  IDS202      0.0000
   1048  H5       -30.4800   33.6730   35.3500 H     202  IDS202      0.0000
   1049  H5       -30.9180   33.8980   36.1750 H     202  IDS202      0.0000
   1050  H5       -30.5520   33.7400   35.2940 H     202  IDS202      0.0000
   1051  H5       -30.9020   34.0090   35.3620 H     202  IDS202      0.0000
   1052  H5       -31.1200   34.2110   35.4810 H     202  IDS202      0.0194
   1053  H5       -30.6840   34.0590   35.7590 H     202  IDS202      0.0230
   1054  H5       -31.4980   34.2090   35.7400 H     202  IDS202      0.0000
   1055  H5       -31.5130   34.2640   36.7020 H     202  IDS202      0.0297
   1056  H5       -30.3790   33.2150   35.7460 H     202  IDS202      0.0000
   1057  H5       -30.8290   33.9300   36.0080 H     202  IDS202      0.0000
   1058  H5       -30.5750   33.4400   35.8420 H     202  IDS202      0.0000
   1059  H5       -30.9950   33.7990   36.5570 H     202  IDS202      0.0000
   1060  H5       -30.5080   33.7350   36.6750 H     202  IDS202      0.0000
   1061  O3       -32.8260   41.1890   37.7050 O.3   203  SGN203     -0.3874
   1062  O3       -31.6260   40.7210   37.9760 O.2   203  SGN203      0.0000
   1063  O3       -31.2330   41.0440   37.6370 O.2   203  SGN203      0.0000
   1064  O3       -31.8170   40.8040   37.5520 O.3   203  SGN203     -0.4105
   1065  O3       -31.3380   41.0970   37.3300 O.3   203  SGN203     -0.2203
   1066  O3       -31.7780   40.9800   37.6730 O.2   203  SGN203      0.0000
   1067  O3       -32.2170   41.2870   37.4940 O.3   203  SGN203     -0.4105
   1068  O3       -31.0150   40.8260   37.5140 O.3   203  SGN203     -0.0717
   1069  O3       -30.9880   41.2580   37.6150 O.3   203  SGN203     -0.2203
   1070  O3       -31.1320   41.0380   37.4840 O.3   203  SGN203     -0.4105
   1071  O3       -31.7900   40.8880   37.5290 O.3   203  SGN203     -0.3982
   1072  O3       -31.5720   41.4560   37.5220 O.2   203  SGN203      0.0000
   1073  O3       -31.6440   41.4540   37.4770 O.3   203  SGN203     -0.2528
   1074  O3       -31.7280   41.4290   37.6430 O.3   203  SGN203     -0.2528
   1075  O3       -31.3880   41.8960   37.7620 O.3   203  SGN203     -0.4105
   1076  O3       -31.6990   39.8520   38.3630 O.3   203  SGN203     -0.3671
   1077  O3       -32.3600   40.9690   38.1430 O.3   203  SGN203     -0.2479
   1078  O3       -32.0580   40.5330   38.0980 O.3   203  SGN203     -0.2092
   1079  O3       -31.6710   41.4080   38.0610 O.3   203  SGN203     -0.2528
   1080  O3       -31.5710   41.5230   37.8840 O.3   203  SGN203     -0.2528
   1081  C2       -29.6450   34.9170   33.9440 C.3   202  IDS202      0.1656
   1082  C2       -29.4070   34.6230   33.4090 C.3   202  IDS202     -0.0650
   1083  C2       -29.6300   34.8090   33.2070 C.3   202  IDS202     -0.0776
   1084  C2       -29.6300   34.5470   33.6130 C.3   202  IDS202     -0.0653
   1085  C2       -29.1840   34.6400   33.6280 C.3   202  IDS202     -0.0556
   1086  C2       -28.6720   35.0460   33.7670 C.2   202  IDS202      0.1239
   1087  C2       -28.6570   35.2710   33.7310 C.3   202  IDS202      0.0747
   1088  C2       -28.6850   34.2800   33.2210 C.3   202  IDS202     -0.0776
   1089  C2       -29.2120   34.5080   33.9250 C.3   202  IDS202     -0.0247
   1090  C2       -28.3500   34.5820   33.6660 C.3   202  IDS202     -0.0776
   1091  C2       -28.2970   34.9940   34.2500 C.2   202  IDS202     -0.1024
   1092  C2       -29.2840   35.0740   33.5240 C.3   202  IDS202     -0.0499
   1093  C2       -28.6590   35.0510   34.0600 C.2   202  IDS202     -0.0877
   1094  C2       -29.4990   35.0080   33.9120 C.3   202  IDS202     -0.0350
   1095  C2       -29.6770   34.9820   34.4960 C.3   202  IDS202     -0.0431
   1096  C2       -28.7050   34.2250   33.4880 C.3   202  IDS202     -0.0776
   1097  C2       -28.9470   34.8550   34.0420 C.3   202  IDS202      0.0212
   1098  C2       -29.1730   34.5630   33.7610 C.3   202  IDS202     -0.0525
   1099  C2       -29.5700   34.7370   34.1910 C.3   202  IDS202     -0.0330
   1100  C2       -29.1380   34.7440   34.3760 C.3   202  IDS202     -0.0247
   1101  O62      -30.3800   35.6080   38.9510 O.3   202  IDS202     -0.1650
   1102  O62      -30.5190   34.5570   38.1000 O.3   202  IDS202     -0.0353
   1103  O62      -30.3290   34.8730   38.2700 O.3   202  IDS202     -0.0381
   1104  O62      -31.8720   34.2820   38.2020 O.3   202  IDS202     -0.0025
   1105  O62      -30.7170   34.6180   38.4760 O.3   202  IDS202     -0.2060
   1106  O62      -30.9170   34.4770   38.1890 O.3   202  IDS202     -0.1999
   1107  O62      -30.4630   34.8490   38.3560 O.3   202  IDS202     -0.0359
   1108  O62      -29.9510   34.6690   38.0660 O.3   202  IDS202     -0.2179
   1109  O62      -30.2510   35.0610   38.8950 O.3   202  IDS202     -0.0327
   1110  O62      -30.6700   34.5730   38.1000 O.3   202  IDS202     -0.2179
   1111  O62      -31.2290   35.3560   38.2060 O.3   202  IDS202     -0.2179
   1112  O62      -30.5580   35.0090   38.4150 O.3   202  IDS202     -0.0356
   1113  O62      -30.6520   34.5370   38.7440 O.3   202  IDS202     -0.0025
   1114  O62      -31.3260   35.2900   38.5900 O.3   202  IDS202     -0.0359
   1115  O62      -30.6760   35.2290   39.3680 O.3   202  IDS202     -0.4105
   1116  O62      -29.5870   34.1270   38.4260 O.3   202  IDS202     -0.0359
   1117  O62      -30.2490   34.8300   38.9470 O.3   202  IDS202     -0.0001
   1118  O62      -29.9210   34.2670   38.6450 O.3   202  IDS202     -0.2179
   1119  O62      -29.7910   34.6300   39.2090 O.3   202  IDS202     -0.0001
   1120  O62      -29.5230   34.1710   39.3400 O.3   202  IDS202     -0.0025
   1121  C6       -35.9270   37.5300   36.3020 C.3   203  SGN203      0.0957
   1122  C6       -35.2800   37.4690   37.2310 C.3   203  SGN203     -0.0650
   1123  C6       -35.2260   38.2440   36.3570 C.2   203  SGN203     -0.1058
   1124  C6       -35.6510   38.2310   36.3020 C.2   203  SGN203     -0.1058
   1125  C6       -35.0100   37.8380   37.0490 C.3   203  SGN203     -0.0776
   1126  C6       -35.0750   37.6860   36.7750 C.3   203  SGN203     -0.0235
   1127  C6       -35.1320   37.5930   36.3720 C.3   203  SGN203     -0.0391
   1128  C6       -34.4380   37.7780   35.8340 C.3   203  SGN203     -0.0461
   1129  C6       -34.7490   38.1840   36.4300 C.1   203  SGN203     -0.1225
   1130  C6       -34.6630   37.9020   36.2120 C.3   203  SGN203     -0.0499
   1131  C6       -35.1060   37.5320   36.1170 C.3   203  SGN203      0.0205
   1132  C6       -35.2920   38.4370   36.5520 C.3   203  SGN203     -0.0531
   1133  C6       -35.1710   38.5290   36.1470 C.3   203  SGN203     -0.0531
   1134  C6       -35.5270   38.7480   36.2520 C.3   203  SGN203     -0.0531
   1135  C6       -35.3750   39.0210   37.6360 C.3   203  SGN203     -0.0776
   1136  C6       -35.0690   36.9650   36.1750 C.3   203  SGN203      0.2257
   1137  C6       -35.2550   37.4150   37.0880 C.3   203  SGN203      0.0862
   1138  C6       -35.4230   37.2510   36.7710 C.3   203  SGN203     -0.0530
   1139  C6       -34.9710   37.7690   38.3480 C.3   203  SGN203     -0.0776
   1140  C6       -34.8170   37.8390   38.3070 C.3   203  SGN203     -0.0776
   1141  O1S      -28.7020   29.2480   40.3130 O.3   201  LVZ201     -0.2626
   1142  O1S      -28.1210   28.8300   39.8070 O.3   201  LVZ201     -0.2179
   1143  O1S      -27.9150   29.4720   39.9320 O.3   201  LVZ201     -0.2179
   1144  O1S      -27.8020   29.3590   40.1290 O.3   201  LVZ201     -0.0359
   1145  O1S      -27.9980   29.0960   40.2290 O.3   201  LVZ201     -0.0025
   1146  O1S      -28.4130   28.7850   39.9090 O.2   201  LVZ201      0.0000
   1147  O1S      -27.8790   28.8890   39.7340 O.2   201  LVZ201      0.0000
   1148  O1S      -29.2200   28.0060   40.1200 O.3   201  LVZ201     -0.4105
   1149  O1S      -28.2260   29.0510   40.5810 O.3   201  LVZ201     -0.0025
   1150  O1S      -29.1450   29.0930   40.5530 O.3   201  LVZ201     -0.4105
   1151  O1S      -27.9400   28.6120   40.1680 O.2   201  LVZ201      0.0000
   1152  O1S      -28.7270   29.5000   39.9530 O.3   201  LVZ201     -0.2179
   1153  O1S      -28.1240   29.3720   40.3390 O.3   201  LVZ201     -0.0359
   1154  O1S      -28.4150   29.2920   40.1620 O.3   201  LVZ201     -0.0359
   1155  O1S      -28.0390   29.2210   40.5700 O.3   201  LVZ201     -0.0049
   1156  O1S      -27.9740   28.5190   39.9820 O.2   201  LVZ201      0.0000
   1157  O1S      -28.0180   28.8210   40.0510 O.2   201  LVZ201      0.0000
   1158  O1S      -27.3510   28.3950   39.7380 O.3   201  LVZ201     -0.4105
   1159  O1S      -28.0840   28.7020   40.1960 O.3   201  LVZ201     -0.0359
   1160  O1S      -27.4570   28.5170   40.3770 O.2   201  LVZ201      0.0000
   1161 HO39      -30.5960   32.3340   37.3020 H     201  LVZ201      0.2100
   1162 HO39      -29.8930   32.3040   36.8310 H     201  LVZ201      0.0000
   1163 HO39      -29.6390   32.7860   36.8740 H     201  LVZ201      0.0000
   1164 HO39      -29.2290   32.4710   37.4140 H     201  LVZ201      0.0000
   1165 HO39      -30.2820   32.2150   36.9800 H     201  LVZ201      0.0000
   1166 HO39      -29.9020   32.5750   36.7900 H     201  LVZ201      0.0000
   1167 HO39      -30.0340   32.8160   36.9090 H     201  LVZ201      0.0000
   1168 HO39      -29.0880   32.4370   36.7580 H     201  LVZ201      0.0000
   1169 HO39      -30.1910   32.2710   37.2540 H     201  LVZ201      0.0000
   1170 HO39      -29.6860   32.4990   36.9590 H     201  LVZ201      0.0000
   1171 HO39      -29.3870   32.7290   37.8930 H     201  LVZ201      0.2563
   1172 HO39      -30.5090   30.9640   37.5690 H     201  LVZ201      0.0000
   1173 HO39      -30.2580   32.3590   37.3740 H     201  LVZ201      0.0000
   1174 HO39      -30.4590   32.5890   37.1520 H     201  LVZ201      0.0000
   1175 HO39      -29.7150   32.9270   37.7580 H     201  LVZ201      0.0000
   1176 HO39      -29.4420   31.8880   36.8750 H     201  LVZ201      0.2528
   1177 HO39      -29.7620   32.3020   37.3750 H     201  LVZ201      0.0000
   1178 HO39      -29.6760   32.2930   36.9390 H     201  LVZ201      0.0000
   1179 HO39      -29.3710   32.7690   37.7350 H     201  LVZ201      0.0000
   1180 HO39      -28.7970   32.7260   37.7900 H     201  LVZ201      0.2528
   1181  C2       -32.2820   39.7570   35.8860 C.3   203  SGN203      0.1013
   1182  C2       -31.5110   39.2870   36.1150 C.3   203  SGN203     -0.0650
   1183  C2       -31.2740   39.7450   35.6090 C.1   203  SGN203     -0.1225
   1184  C2       -31.6680   39.4070   35.6100 C.3   203  SGN203     -0.0207
   1185  C2       -31.2910   39.5510   35.6270 C.2   203  SGN203     -0.0766
   1186  C2       -31.4430   39.5650   35.8990 C.3   203  SGN203     -0.0528
   1187  C2       -31.4650   39.8260   35.8120 C.3   203  SGN203     -0.0585
   1188  C2       -30.4840   39.5630   35.5600 C.3   203  SGN203      0.0482
   1189  C2       -30.6720   39.7220   35.9090 C.3   203  SGN203      0.1042
   1190  C2       -30.8190   39.5360   35.6510 C.3   203  SGN203     -0.0438
   1191  C2       -31.4270   39.6620   35.4940 C.3   203  SGN203     -0.0650
   1192  C2       -31.3240   39.8850   35.7950 C.3   203  SGN203     -0.0650
   1193  C2       -31.1270   39.8860   35.8400 C.2   203  SGN203     -0.0994
   1194  C2       -31.5650   40.0180   35.6690 C.1   203  SGN203     -0.1225
   1195  C2       -31.2950   40.0980   36.3310 C.3   203  SGN203     -0.0533
   1196  C2       -31.2660   38.8280   36.2690 C.3   203  SGN203     -0.0776
   1197  C2       -31.7500   39.5820   36.3400 C.3   203  SGN203     -0.0533
   1198  C2       -31.6900   39.1870   36.0750 C.3   203  SGN203     -0.0379
   1199  C2       -31.5610   39.5390   36.5030 C.3   203  SGN203     -0.0776
   1200  C2       -31.3140   39.5670   36.4750 C.3   203  SGN203     -0.0444
   1201  S        -28.8800   35.0880   31.3990 S.3   202  IDS202     -0.0072
   1202  S        -28.3950   34.1780   31.1390 S.3   202  IDS202      0.0150
   1203  S        -29.0530   34.5170   30.6250 S.3   202  IDS202      0.1912
   1204  S        -28.3500   34.4960   31.3530 S.3   202  IDS202     -0.0888
   1205  S        -28.1770   34.2210   31.2190 S.3   202  IDS202     -0.1137
   1206  S        -27.2500   35.1470   31.5100 S.3   202  IDS202     -0.1960
   1207  S        -27.2210   35.0520   31.4970 S.2   202  IDS202      0.0212
   1208  S        -27.3580   33.8760   30.9760 S.O2  202  IDS202      0.2363
   1209  S        -27.9830   33.9150   31.6750 S.3   202  IDS202     -0.1137
   1210  S        -26.8220   34.9910   31.3840 S.3   202  IDS202      0.1138
   1211  S        -26.1140   35.4070   32.6440 S.3   202  IDS202      0.3202
   1212  S        -28.4470   34.8370   30.9900 S.3   202  IDS202     -0.0983
   1213  S        -27.4200   35.1350   31.8090 S.2   202  IDS202      0.2278
   1214  S        -28.1480   34.8880   31.6390 S.3   202  IDS202      0.0075
   1215  S        -28.9590   34.3540   32.0670 S.3   202  IDS202     -0.0888
   1216  S        -27.4700   34.7710   31.1210 S.3   202  IDS202      0.1993
   1217  S        -28.0260   34.9350   31.5670 S.3   202  IDS202      0.1274
   1218  S        -28.2160   34.4530   31.1990 S.3   202  IDS202     -0.0148
   1219  S        -28.4550   34.7760   31.7520 S.3   202  IDS202      0.2118
   1220  S        -28.5710   34.6410   31.7240 S.3   202  IDS202      0.0373
   1221  C39      -29.2950   31.0230   36.8240 C.3   201  LVZ201      0.1055
   1222  C39      -28.9910   30.6300   36.0820 C.3   201  LVZ201     -0.0377
   1223  C39      -29.0460   31.0870   36.1640 C.3   201  LVZ201     -0.0619
   1224  C39      -28.9900   30.7160   36.5470 C.3   201  LVZ201     -0.0374
   1225  C39      -29.0490   30.7330   36.5500 C.3   201  LVZ201     -0.0531
   1226  C39      -28.8190   30.8980   36.2320 C.3   201  LVZ201     -0.0463
   1227  C39      -28.8940   31.2080   36.3810 C.3   201  LVZ201     -0.0595
   1228  C39      -28.5460   30.5820   36.2110 C.3   201  LVZ201     -0.0323
   1229  C39      -28.9820   30.8330   36.9250 C.3   201  LVZ201     -0.0471
   1230  C39      -28.7260   30.7670   36.6230 C.3   201  LVZ201     -0.0471
   1231  C39      -28.7940   31.0840   36.8140 C.3   201  LVZ201     -0.0440
   1232  C39      -29.2690   31.0100   36.1820 C.3   201  LVZ201     -0.0531
   1233  C39      -28.7140   31.1570   36.7720 C.3   201  LVZ201     -0.0315
   1234  C39      -29.4260   31.0160   36.6060 C.3   201  LVZ201     -0.0531
   1235  C39      -28.9600   31.1570   37.0510 C.2   201  LVZ201      0.1071
   1236  C39      -28.6470   30.2440   36.2020 C.3   201  LVZ201     -0.0776
   1237  C39      -28.9260   30.7470   36.6950 C.3   201  LVZ201     -0.0499
   1238  C39      -28.4870   30.8180   36.5480 C.3   201  LVZ201     -0.0256
   1239  C39      -28.7050   31.0970   37.0170 C.3   201  LVZ201     -0.0648
   1240  C39      -28.3620   30.9860   36.9610 C.3   201  LVZ201     -0.0417
   1241  C3       -30.5630   36.1700   34.1580 C.3   202  IDS202      0.1171
   1242  C3       -30.1540   35.9190   33.7910 C.3   202  IDS202     -0.0528
   1243  C3       -30.2380   36.2000   33.5740 C.3   202  IDS202      0.0941
   1244  C3       -30.4860   35.7940   33.8080 C.3   202  IDS202     -0.0196
   1245  C3       -29.9530   35.8770   33.9870 C.3   202  IDS202     -0.0210
   1246  C3       -29.3870   36.2980   34.1880 C.3   202  IDS202     -0.0776
   1247  C3       -29.4730   36.5250   34.0560 C.3   202  IDS202     -0.0590
   1248  C3       -29.3400   35.6300   33.4570 C.2   202  IDS202     -0.1024
   1249  C3       -29.9260   35.8200   34.1250 C.3   202  IDS202     -0.0525
   1250  C3       -29.1900   35.7960   33.8060 C.2   202  IDS202     -0.0883
   1251  C3       -29.2270   36.1740   34.2340 C.3   202  IDS202     -0.0260
   1252  C3       -29.8180   36.4190   33.9870 C.3   202  IDS202     -0.0414
   1253  C3       -29.5240   36.3290   34.2670 C.3   202  IDS202     -0.0623
   1254  C3       -30.2310   36.3220   34.0580 C.3   202  IDS202     -0.0504
   1255  C3       -30.3330   36.3750   34.7970 C.2   202  IDS202     -0.0953
   1256  C3       -29.3140   35.5220   34.0570 C.3   202  IDS202     -0.0201
   1257  C3       -29.7220   36.1480   34.4920 C.3   202  IDS202     -0.0470
   1258  C3       -30.1290   35.6990   34.1160 C.3   202  IDS202     -0.0255
   1259  C3       -30.3640   35.9950   34.7030 C.3   202  IDS202     -0.0653
   1260  C3       -29.7800   36.1220   34.8710 C.1   202  IDS202     -0.1225
   1261  O2S      -27.8480   27.2860   39.1790 O.3   201  LVZ201     -0.2626
   1262  O2S      -27.5550   26.9810   38.4790 O.2   201  LVZ201      0.0000
   1263  O2S      -27.3790   27.5220   38.6410 O.3   201  LVZ201     -0.0383
   1264  O2S      -27.2480   27.2840   38.9510 O.3   201  LVZ201     -0.2179
   1265  O2S      -27.5450   27.1370   38.9060 O.3   201  LVZ201     -0.2179
   1266  O2S      -27.9220   26.9170   38.4190 O.3   201  LVZ201      0.0000
   1267  O2S      -27.9160   27.0120   38.2450 O.2   201  LVZ201      0.0000
   1268  O2S      -27.2920   27.1200   39.1670 O.3   201  LVZ201     -0.0383
   1269  O2S      -27.7320   27.1790   39.2860 O.3   201  LVZ201     -0.0383
   1270  O2S      -27.9620   27.4310   39.3910 O.3   201  LVZ201     -0.1366
   1271  O2S      -27.8810   26.9000   38.6220 O.3   201  LVZ201     -0.4105
   1272  O2S      -27.7500   27.6370   38.7550 O.3   201  LVZ201     -0.0383
   1273  O2S      -27.3590   27.6300   38.9900 O.3   201  LVZ201     -0.2179
   1274  O2S      -28.1100   27.2970   38.9190 O.3   201  LVZ201     -0.1366
   1275  O2S      -27.5070   27.5760   38.9880 O.3   201  LVZ201     -0.2179
   1276  O2S      -27.1360   26.7060   38.5870 O.2   201  LVZ201      0.0000
   1277  O2S      -27.4970   26.9070   38.6440 O.2   201  LVZ201      0.0000
   1278  O2S      -27.6610   26.6040   38.2290 O.3   201  LVZ201      0.0000
   1279  O2S      -27.8220   26.9690   38.5300 O.3   201  LVZ201     -0.4105
   1280  O2S      -27.6020   26.7640   38.6240 O.3   201  LVZ201      0.0000
   1281  C49      -28.3680   31.9780   36.0720 C.3   201  LVZ201      0.1176
   1282  C49      -28.0080   31.6270   35.4920 C.3   201  LVZ201     -0.0655
   1283  C49      -28.2030   31.9070   35.1590 C.3   201  LVZ201     -0.0776
   1284  C49      -28.2250   31.5830   35.5840 C.1   201  LVZ201     -0.1225
   1285  C49      -28.0670   31.6550   35.7230 C.3   201  LVZ201     -0.0496
   1286  C49      -27.7260   31.7150   35.5080 C.3   201  LVZ201     -0.0350
   1287  C49      -27.8020   31.9720   35.5800 C.3   201  LVZ201     -0.0588
   1288  C49      -27.6400   31.3810   35.3010 C.2   201  LVZ201     -0.0911
   1289  C49      -27.9890   31.7310   36.1320 C.3   201  LVZ201     -0.0525
   1290  C49      -27.6030   31.5160   35.9440 C.3   201  LVZ201     -0.0622
   1291  C49      -27.7000   31.7630   35.9360 C.3   201  LVZ201     -0.0655
   1292  C49      -28.2810   31.9560   35.4020 C.1   201  LVZ201     -0.1225
   1293  C49      -27.7770   31.9660   35.8870 C.3   201  LVZ201     -0.0502
   1294  C49      -28.5490   32.0430   35.9430 C.3   201  LVZ201     -0.0622
   1295  C49      -28.1620   32.0250   36.1060 C.3   201  LVZ201     -0.0413
   1296  C49      -27.7000   31.2140   35.4240 C.3   201  LVZ201     -0.0776
   1297  C49      -28.0100   31.6580   35.8800 C.3   201  LVZ201     -0.0415
   1298  C49      -27.5300   31.7790   35.7410 C.3   201  LVZ201     -0.0776
   1299  C49      -27.8200   31.9510   36.1920 C.3   201  LVZ201     -0.0531
   1300  C49      -27.5010   31.7480   35.8960 C.3   201  LVZ201     -0.0650
   1301  O5       -33.9520   37.9990   35.2740 O.3   203  SGN203     -0.3414
   1302  O5       -33.4130   37.8100   35.7590 O.3   203  SGN203     -0.0025
   1303  O5       -33.1060   38.2370   35.0970 O.2   203  SGN203      0.0000
   1304  O5       -33.6500   38.0030   35.1090 O.3   203  SGN203     -0.4105
   1305  O5       -33.0240   37.8740   35.5210 O.3   203  SGN203     -0.0359
   1306  O5       -33.1620   37.8430   35.4520 O.3   203  SGN203     -0.2203
   1307  O5       -33.0240   38.0490   35.2160 O.3   203  SGN203     -0.0025
   1308  O5       -32.2940   38.0150   34.9110 O.3   203  SGN203     -0.2179
   1309  O5       -32.5340   38.1400   35.3650 O.2   203  SGN203     -0.3010
   1310  O5       -32.6210   38.1310   35.1730 O.3   203  SGN203     -0.0359
   1311  O5       -32.9660   37.8520   34.9400 O.2   203  SGN203      0.0000
   1312  O5       -33.1900   38.3570   35.4420 O.3   203  SGN203     -0.0001
   1313  O5       -32.9000   38.2310   35.3270 O.3   203  SGN203     -0.2179
   1314  O5       -33.3250   38.5570   35.1650 O.3   203  SGN203     -0.4105
   1315  O5       -33.3080   38.6560   36.2290 O.2   203  SGN203     -0.2980
   1316  O5       -32.8240   37.1810   35.3250 O.3   203  SGN203     -0.2203
   1317  O5       -33.3070   37.7540   35.7680 O.3   203  SGN203     -0.4105
   1318  O5       -33.3930   37.4540   35.6530 O.3   203  SGN203     -0.0717
   1319  O5       -33.2980   37.8300   36.6900 O.3   203  SGN203     -0.3953
   1320  O5       -33.0510   37.8480   36.6590 O.3   203  SGN203     -0.4105
   1321  C59      -27.4800   31.2190   35.1720 C.3   201  LVZ201      0.1149
   1322  C59      -26.9100   30.8910   34.6900 C.3   201  LVZ201     -0.0776
   1323  C59      -27.3670   31.0510   34.2650 C.3   201  LVZ201     -0.0681
   1324  C59      -27.2720   30.8760   34.6710 C.3   201  LVZ201     -0.0681
   1325  C59      -27.0810   30.8410   34.8880 C.3   201  LVZ201     -0.0776
   1326  C59      -26.9390   30.8410   34.6130 C.2   201  LVZ201     -0.0857
   1327  C59      -26.9170   31.1110   34.7130 C.3   201  LVZ201     -0.0655
   1328  C59      -26.6330   30.5580   34.5590 C.2   201  LVZ201     -0.1021
   1329  C59      -27.0850   30.8510   35.2380 C.3   201  LVZ201     -0.0566
   1330  C59      -26.7760   30.4840   35.2040 C.3   201  LVZ201      0.0716
   1331  C59      -27.0810   30.8060   34.8900 C.3   201  LVZ201     -0.0776
   1332  C59      -27.3870   31.1100   34.5370 C.3   201  LVZ201     -0.0776
   1333  C59      -26.9580   31.0990   34.9230 C.3   201  LVZ201     -0.0200
   1334  C59      -27.7140   31.1420   34.9480 C.2   201  LVZ201     -0.1026
   1335  C59      -27.3980   31.1680   35.0040 C.3   201  LVZ201     -0.0566
   1336  C59      -26.8560   30.4240   34.4750 C.3   201  LVZ201     -0.0655
   1337  C59      -27.1010   30.9690   34.9380 C.1   201  LVZ201     -0.1225
   1338  C59      -26.4750   31.0510   34.8920 C.3   201  LVZ201     -0.0566
   1339  C59      -26.9250   31.2520   35.2060 C.1   201  LVZ201     -0.1225
   1340  C59      -27.0670   30.7480   34.7990 C.3   201  LVZ201     -0.0588
   1341  H2       -30.3070   34.1280   33.5880 H     202  IDS202      0.0698
   1342  H2       -30.1050   33.9590   32.9000 H     202  IDS202      0.0000
   1343  H2       -30.3780   34.0260   33.0800 H     202  IDS202      0.0000
   1344  H2       -30.2150   33.7730   33.1160 H     202  IDS202      0.0000
   1345  H2       -29.9800   33.9650   33.3140 H     202  IDS202      0.0000
   1346  H2       -29.4060   34.4910   33.1830 H     202  IDS202      0.0000
   1347  H2       -29.4100   34.7070   33.1820 H     202  IDS202      0.0263
   1348  H2       -29.3470   33.5370   32.7780 H     202  IDS202      0.0000
   1349  H2       -29.9530   33.8120   33.5300 H     202  IDS202      0.0000
   1350  H2       -28.9230   33.8270   33.1270 H     202  IDS202      0.0194
   1351  H2       -28.7080   34.3120   33.5050 H     202  IDS202      0.0194
   1352  H2       -30.0590   34.4930   33.0250 H     202  IDS202      0.0194
   1353  H2       -29.1980   34.3310   33.4440 H     202  IDS202      0.0194
   1354  H2       -30.1430   34.2850   33.4100 H     202  IDS202      0.0000
   1355  H2       -30.5070   34.3430   34.1950 H     202  IDS202      0.0000
   1356  H2       -29.3800   33.6220   32.8810 H     202  IDS202      0.0000
   1357  H2       -29.6420   34.2240   33.4880 H     202  IDS202      0.0230
   1358  H2       -29.8120   33.7140   33.5190 H     202  IDS202      0.0000
   1359  H2       -30.2440   33.9890   33.7730 H     202  IDS202      0.0000
   1360  H2       -29.8360   33.9620   34.0750 H     202  IDS202      0.0307
   1361  H5       -34.0380   37.2900   37.2480 H     203  SGN203      0.0647
   1362  H5       -33.2010   36.9070   37.6460 H     203  SGN203      0.0000
   1363  H5       -33.4130   37.3900   36.9260 H     203  SGN203      0.0265
   1364  H5       -34.0740   37.1190   36.9760 H     203  SGN203      0.0000
   1365  H5       -32.9470   37.3390   37.5850 H     203  SGN203      0.0000
   1366  H5       -33.1030   37.1210   37.5460 H     203  SGN203      0.0000
   1367  H5       -33.1070   37.1730   37.0230 H     203  SGN203      0.0000
   1368  H5       -32.5870   36.9200   36.5930 H     203  SGN203      0.0000
   1369  H5       -32.8650   37.5360   37.2770 H     203  SGN203      0.2052
   1370  H5       -32.8930   37.1130   37.0040 H     203  SGN203      0.0000
   1371  H5       -33.1200   37.0610   36.8430 H     203  SGN203      0.0194
   1372  H5       -33.3260   37.6420   37.4380 H     203  SGN203      0.0194
   1373  H5       -33.4470   37.6890   37.2380 H     203  SGN203      0.0252
   1374  H5       -33.7160   37.8020   37.0510 H     203  SGN203      0.0194
   1375  H5       -33.4230   38.3770   38.3520 H     203  SGN203      0.0291
   1376  H5       -33.2550   36.0340   37.0340 H     203  SGN203      0.2052
   1377  H5       -33.3040   36.8920   37.6300 H     203  SGN203      0.0000
   1378  H5       -33.4480   36.6930   37.5550 H     203  SGN203      0.0000
   1379  H5       -32.8980   37.5010   38.7600 H     203  SGN203      0.0000
   1380  H5       -32.7100   37.4290   38.6620 H     203  SGN203      0.0000
   1381  H62      -36.1370   37.8510   35.2820 H     203  SGN203      0.0601
   1382  H62      -35.8330   37.8940   36.3940 H     203  SGN203      0.0000
   1383  H62      -35.6550   39.0010   35.6990 H     203  SGN203      0.0265
   1384  H62      -35.8630   38.4150   35.2490 H     203  SGN203      0.0000
   1385  H62      -35.5500   38.3740   36.2690 H     203  SGN203      0.0265
   1386  H62      -35.2930   37.8890   35.7270 H     203  SGN203      0.0337
   1387  H62      -35.2750   37.6890   35.2960 H     203  SGN203      0.0000
   1388  H62      -34.7050   38.0830   34.8220 H     203  SGN203      0.0000
   1389  H62      -35.0090   38.0150   35.3850 H     203  SGN203      0.0268
   1390  H62      -34.7350   37.0020   35.6000 H     203  SGN203      0.1192
   1391  H62      -35.2260   36.6710   35.4610 H     203  SGN203      0.0000
   1392  H62      -35.5610   39.0510   35.6930 H     203  SGN203      0.0000
   1393  H62      -35.3990   39.0490   35.2160 H     203  SGN203      0.0000
   1394  H62      -35.7020   39.5620   35.5480 H     203  SGN203      0.0000
   1395  H62      -35.7890   39.6080   36.8170 H     203  SGN203      0.0000
   1396  H62      -35.2530   37.2050   35.1290 H     203  SGN203      0.0000
   1397  H62      -35.8890   38.1930   36.6630 H     203  SGN203      0.0529
   1398  H62      -35.8630   37.9760   36.0850 H     203  SGN203      0.0000
   1399  H62      -35.5550   38.2470   37.5620 H     203  SGN203      0.0000
   1400  H62      -35.4190   38.0840   37.4330 H     203  SGN203      0.0000
   1401  O39      -29.9880   31.7720   37.7880 O.3   201  LVZ201     -0.3874
   1402  O39      -30.0220   31.3530   36.8230 O.3   201  LVZ201     -0.2179
   1403  O39      -29.4750   31.9040   37.2160 O.3   201  LVZ201     -0.2528
   1404  O39      -29.6120   31.5980   37.5330 O.3   201  LVZ201     -0.2179
   1405  O39      -29.7280   31.6170   37.4880 O.3   201  LVZ201     -0.2203
   1406  O39      -29.5170   31.7620   37.1250 O.3   201  LVZ201     -0.0717
   1407  O39      -29.6780   32.0230   37.3160 O.3   201  LVZ201     -0.2203
   1408  O39      -29.2770   31.5490   37.0690 O.3   201  LVZ201     -0.2528
   1409  O39      -29.8020   31.6000   37.8190 O.3   201  LVZ201     -0.2179
   1410  O39      -29.4750   31.7010   37.4500 O.3   201  LVZ201     -0.0717
   1411  O39      -29.0750   31.8230   37.9640 O.3   201  LVZ201     -0.0383
   1412  O39      -29.9790   31.6930   37.2370 O.3   201  LVZ201     -0.0383
   1413  O39      -29.4550   31.9690   37.7240 O.3   201  LVZ201     -0.0383
   1414  O39      -30.1800   31.7890   37.6030 O.3   201  LVZ201     -0.0383
   1415  O39      -29.3790   32.0860   38.0780 O.3   201  LVZ201     -0.2179
   1416  O39      -29.2970   31.0150   37.2470 O.2   201  LVZ201     -0.3047
   1417  O39      -29.5320   31.4750   37.8050 O.3   201  LVZ201     -0.2203
   1418  O39      -29.2560   31.5720   37.4140 O.3   201  LVZ201     -0.2203
   1419  O39      -29.0910   31.9440   38.1380 O.3   201  LVZ201     -0.2528
   1420  O39      -28.5800   31.8470   38.1090 O.3   201  LVZ201     -0.2528
   1421  C69      -26.5280   32.0710   34.2910 C.3   201  LVZ201      0.0956
   1422  C69      -25.8920   31.7880   34.1220 C.1   201  LVZ201     -0.1225
   1423  C69      -26.3780   31.8460   33.3430 C.3   201  LVZ201     -0.0776
   1424  C69      -26.2580   31.7060   34.0540 C.3   201  LVZ201     -0.0588
   1425  C69      -26.1040   31.6970   34.1220 C.3   201  LVZ201     -0.0394
   1426  C69      -25.8340   31.6650   33.9190 C.3   201  LVZ201     -0.0386
   1427  C69      -25.6530   31.7710   34.1790 C.3   201  LVZ201     -0.0530
   1428  C69      -25.6220   31.4220   33.6600 C.3   201  LVZ201      0.0798
   1429  C69      -26.0160   31.6330   34.4930 C.1   201  LVZ201     -0.1225
   1430  C69      -25.7100   31.2000   34.4130 C.3   201  LVZ201     -0.0776
   1431  C69      -25.9080   31.3440   34.0510 C.3   201  LVZ201     -0.0236
   1432  C69      -26.3580   32.0240   33.9110 C.3   201  LVZ201     -0.0530
   1433  C69      -25.9010   31.9000   34.0850 C.3   201  LVZ201     -0.0655
   1434  C69      -26.7700   31.9590   34.0820 C.3   201  LVZ201     -0.0650
   1435  C69      -26.4250   32.0500   34.2550 C.3   201  LVZ201     -0.0655
   1436  C69      -25.9120   31.2570   33.6540 C.3   201  LVZ201      0.0829
   1437  C69      -26.0140   31.7360   34.1770 C.3   201  LVZ201     -0.0776
   1438  C69      -25.4360   31.9910   34.4370 C.3   201  LVZ201     -0.0650
   1439  C69      -25.9640   32.1970   34.5700 C.3   201  LVZ201     -0.0776
   1440  C69      -26.1260   31.1890   33.6700 C.3   201  LVZ201     -0.0776
   1441  O2S      -30.7860   42.1870   34.4870 O.3   203  SGN203     -0.2956
   1442  O2S      -30.6010   41.3820   34.4410 O.3   203  SGN203     -0.2179
   1443  O2S      -30.1830   41.7600   33.6460 O.2   203  SGN203      0.0000
   1444  O2S      -30.4950   41.3730   33.8930 O.3   203  SGN203     -0.4105
   1445  O2S      -28.0570   40.0820   33.6680 O.2   203  SGN203      0.0000
   1446  O2S      -30.4770   41.7270   34.1640 O.3   203  SGN203     -0.0049
   1447  O2S      -30.2490   41.9270   34.0960 O.2   203  SGN203      0.0000
   1448  O2S      -29.6170   41.3640   33.3910 O.2   203  SGN203      0.0000
   1449  O2S      -29.4660   40.4070   33.5110 O.2   203  SGN203      0.0000
   1450  O2S      -30.2300   41.7220   33.8150 O.3   203  SGN203     -0.0359
   1451  O2S      -30.4080   41.5830   33.6930 O.3   203  SGN203     -0.0383
   1452  O2S      -30.2400   42.1130   34.1050 O.3   203  SGN203     -0.4105
   1453  O2S      -30.0410   41.6210   33.6440 O.2   203  SGN203      0.0000
   1454  O2S      -30.4830   41.3750   33.3100 O.3   203  SGN203     -0.2179
   1455  O2S      -30.6690   41.5440   34.0420 O.3   203  SGN203     -0.0383
   1456  O2S      -30.3930   41.4260   34.9990 O.3   203  SGN203     -0.2203
   1457  O2S      -31.0980   41.7870   34.4690 O.3   203  SGN203     -0.2179
   1458  O2S      -30.5830   39.8480   33.4990 O.2   203  SGN203      0.0000
   1459  O2S      -30.7570   41.5460   34.4190 O.3   203  SGN203     -0.0359
   1460  O2S      -30.5330   39.6030   33.6170 O.3   203  SGN203     -0.0172
   1461  O1S      -29.5940   36.2640   30.9940 O.3   202  IDS202     -0.2613
   1462  O1S      -29.6710   34.2870   30.4740 O.3   202  IDS202     -0.1350
   1463  O1S      -30.3520   35.0700   30.3340 O.3   202  IDS202     -0.4105
   1464  O1S      -29.1070   35.4560   30.6470 O.3   202  IDS202     -0.0001
   1465  O1S      -28.9800   34.9930   30.2990 O.3   202  IDS202     -0.3044
   1466  O1S      -27.5390   36.4530   30.9450 O.3   202  IDS202     -0.2179
   1467  O1S      -26.9590   36.1460   30.5960 O.2   202  IDS202      0.0000
   1468  O1S      -28.2560   34.5910   30.1270 O.3   202  IDS202     -0.2179
   1469  O1S      -28.9760   34.3350   30.7840 O.2   202  IDS202      0.0000
   1470  O1S      -27.1920   36.3240   31.0710 O.2   202  IDS202      0.0000
   1471  O1S      -25.6720   36.7070   32.3500 O.2   202  IDS202     -0.1067
   1472  O1S      -28.5440   36.0190   30.2220 O.3   202  IDS202     -0.2179
   1473  O1S      -28.0880   36.2230   31.1470 O.3   202  IDS202     -0.0359
   1474  O1S      -28.9890   35.8400   31.0330 O.3   202  IDS202     -0.0001
   1475  O1S      -30.2620   34.6780   31.5490 O.3   202  IDS202     -0.2179
   1476  O1S      -26.1790   35.1960   30.6640 O.2   202  IDS202     -0.1067
   1477  O1S      -28.6510   36.1910   31.1130 O.3   202  IDS202     -0.0025
   1478  O1S      -28.0080   35.5990   30.3680 O.3   202  IDS202     -0.0383
   1479  O1S      -29.4560   35.2650   30.8080 O.3   202  IDS202     -0.0025
   1480  O1S      -29.8680   35.1130   31.3050 O.3   202  IDS202     -0.0359
   1481  H2       -32.8220   40.5220   35.3290 H     203  SGN203      0.0547
   1482  H2       -32.1440   40.0970   35.7510 H     203  SGN203      0.0000
   1483  H2       -31.7490   40.5630   35.0680 H     203  SGN203      0.0000
   1484  H2       -32.1300   40.2900   35.1680 H     203  SGN203      0.0000
   1485  H2       -31.8050   40.3130   35.0410 H     203  SGN203      0.0000
   1486  H2       -32.0200   40.3770   35.4570 H     203  SGN203      0.0000
   1487  H2       -31.9430   40.5260   35.1260 H     203  SGN203      0.0000
   1488  H2       -31.0070   40.3390   34.9990 H     203  SGN203      0.1191
   1489  H2       -31.0760   40.4250   35.1820 H     203  SGN203      0.0000
   1490  H2       -31.3760   40.3130   35.1260 H     203  SGN203      0.0000
   1491  H2       -32.0620   40.3230   34.9040 H     203  SGN203      0.0000
   1492  H2       -31.8980   40.6460   35.2670 H     203  SGN203      0.0000
   1493  H2       -31.6590   40.6270   35.2430 H     203  SGN203      0.0000
   1494  H2       -32.1240   40.7300   35.0620 H     203  SGN203      0.0000
   1495  H2       -31.8470   40.7840   35.6890 H     203  SGN203      0.0000
   1496  H2       -31.7930   39.6670   35.8140 H     203  SGN203      0.0230
   1497  H2       -32.4890   40.3050   35.9970 H     203  SGN203      0.0000
   1498  H2       -32.2750   39.9240   35.5250 H     203  SGN203      0.0000
   1499  H2       -32.2340   40.0910   35.8470 H     203  SGN203      0.0000
   1500  H2       -32.0060   40.0770   35.8060 H     203  SGN203      0.0236
   1501  HO3      -33.3450   41.6660   37.0540 H     203  SGN203      0.2100
   1502  HO3      -32.4560   41.2000   37.9200 H     203  SGN203      0.0000
   1503  HO3      -31.4810   41.7680   37.0580 H     203  SGN203      0.0000
   1504  HO3      -32.6250   41.2940   37.7150 H     203  SGN203      0.2052
   1505  HO3      -31.4840   41.3340   38.2480 H     203  SGN203      0.2528
   1506  HO3      -31.1270   41.4060   37.1110 H     203  SGN203      0.2562
   1507  HO3      -32.6950   41.6900   36.7670 H     203  SGN203      0.0000
   1508  HO3      -31.5130   40.7080   38.3260 H     203  SGN203      0.2528
   1509  HO3      -31.4570   41.8530   37.0260 H     203  SGN203      0.0000
   1510  HO3      -31.1080   40.9050   38.4350 H     203  SGN203      0.0000
   1511  HO3      -32.1010   41.5990   36.9640 H     203  SGN203      0.0000
   1512  HO3      -31.8800   41.9610   36.7660 H     203  SGN203      0.0000
   1513  HO3      -32.2620   41.9050   36.8960 H     203  SGN203      0.0000
   1514  HO3      -30.7820   41.5500   37.5270 H     203  SGN203      0.0000
   1515  HO3      -31.4920   42.3510   36.9230 H     203  SGN203      0.0000
   1516  HO3      -30.9080   40.3780   38.2180 H     203  SGN203      0.0000
   1517  HO3      -31.6140   41.5270   37.9110 H     203  SGN203      0.0000
   1518  HO3      -32.0640   41.1790   37.3890 H     203  SGN203      0.2090
   1519  HO3      -31.1240   41.7180   37.3340 H     203  SGN203      0.0000
   1520  HO3      -31.4840   41.9000   38.7620 H     203  SGN203      0.0000
   1521  O5S      -23.8510   31.0960   34.7470 O.3   201  LVZ201     -0.0803
   1522  O5S      -23.2730   30.4800   34.6750 O.3   201  LVZ201     -0.2203
   1523  O5S      -23.6790   30.5260   33.4700 O.2   201  LVZ201     -0.2303
   1524  O5S      -23.6780   30.4240   34.6280 O.3   201  LVZ201     -0.0717
   1525  O5S      -23.7920   30.0450   34.5670 O.3   201  LVZ201     -0.2203
   1526  O5S      -23.0810   30.6970   34.9110 O.3   201  LVZ201     -0.2191
   1527  O5S      -23.1450   30.5860   34.6930 O.3   201  LVZ201     -0.0359
   1528  O5S      -22.9640   30.3960   34.6780 O.3   201  LVZ201     -0.2179
   1529  O5S      -23.3060   30.9900   34.7880 O.3   201  LVZ201     -0.2179
   1530  O5S      -23.3270   29.6050   34.2370 O.3   201  LVZ201     -0.4105
   1531  O5S      -24.3560   29.0370   33.6460 O.3   201  LVZ201     -0.2435
   1532  O5S      -23.9080   30.7270   34.6780 O.3   201  LVZ201     -0.4105
   1533  O5S      -23.3290   30.4900   34.1730 O.3   201  LVZ201     -0.0049
   1534  O5S      -23.6230   31.5860   34.3290 O.2   201  LVZ201      0.0000
   1535  O5S      -23.6260   30.9660   34.8280 O.2   201  LVZ201      0.0000
   1536  O5S      -23.1320   30.1160   34.3730 O.3   201  LVZ201     -0.0359
   1537  O5S      -23.5150   31.0990   35.0110 O.3   201  LVZ201     -0.0524
   1538  O5S      -22.2940   30.3890   33.2660 O.3   201  LVZ201     -0.4105
   1539  O5S      -22.9140   30.4780   33.0900 O.3   201  LVZ201     -0.1321
   1540  O5S      -22.4600   31.9220   33.8910 O.3   201  LVZ201     -0.4105
   1541  HO4      -36.0270   39.8940   38.2700 H     203  SGN203      0.2100
   1542  HO4      -33.1030   39.5210   39.7260 H     203  SGN203      0.2052
   1543  HO4      -33.1390   40.1490   39.1140 H     203  SGN203      0.0000
   1544  HO4      -33.6310   39.8280   39.0890 H     203  SGN203      0.2563
   1545  HO4      -33.7500   40.3100   39.0800 H     203  SGN203      0.0000
   1546  HO4      -33.9900   39.9380   39.2480 H     203  SGN203      0.0000
   1547  HO4      -33.8240   40.0460   39.1090 H     203  SGN203      0.2052
   1548  HO4      -32.8380   37.9380   38.6290 H     203  SGN203      0.0529
   1549  HO4      -34.2030   40.0370   38.5960 H     203  SGN203      0.2052
   1550  HO4      -34.0320   38.6910   38.6370 H     203  SGN203      0.2563
   1551  HO4      -34.8760   38.8860   38.2180 H     203  SGN203      0.0000
   1552  HO4      -33.2380   39.7330   39.2840 H     203  SGN203      0.2052
   1553  HO4      -33.0600   39.1570   38.9650 H     203  SGN203      0.0194
   1554  HO4      -33.3170   40.3180   39.1280 H     203  SGN203      0.2052
   1555  HO4      -33.0590   41.2040   39.8230 H     203  SGN203      0.0000
   1556  HO4      -33.4640   38.4720   39.4920 H     203  SGN203      0.0000
   1557  HO4      -33.3440   38.0250   39.6120 H     203  SGN203      0.0000
   1558  HO4      -33.2910   38.1310   39.3700 H     203  SGN203      0.2528
   1559  HO4      -33.9350   39.3610   40.2810 H     203  SGN203      0.0000
   1560  HO4      -32.4660   40.6200   40.0940 H     203  SGN203      0.0000
   1561  H3       -32.3510   39.1530   37.9160 H     203  SGN203      0.0638
   1562  H3       -31.1100   38.7650   38.2260 H     203  SGN203      0.0000
   1563  H3       -31.1700   38.9770   37.6410 H     203  SGN203      0.0000
   1564  H3       -31.6290   38.6940   37.6560 H     203  SGN203      0.0000
   1565  H3       -31.0400   39.0480   37.6340 H     203  SGN203      0.0000
   1566  H3       -31.2020   38.9400   37.9690 H     203  SGN203      0.0000
   1567  H3       -31.4000   39.4050   37.9230 H     203  SGN203      0.0000
   1568  H3       -30.6150   38.8120   37.5920 H     203  SGN203      0.0000
   1569  H3       -30.8890   39.2370   38.0490 H     203  SGN203      0.0000
   1570  H3       -30.7670   39.0410   37.7550 H     203  SGN203      0.0000
   1571  H3       -31.4620   38.9480   37.5390 H     203  SGN203      0.0194
   1572  H3       -31.2310   39.5380   37.9710 H     203  SGN203      0.0194
   1573  H3       -31.2530   39.4600   37.9270 H     203  SGN203      0.0000
   1574  H3       -31.4570   39.3820   37.7380 H     203  SGN203      0.0194
   1575  H3       -31.1910   39.9190   38.4560 H     203  SGN203      0.2123
   1576  H3       -31.2310   37.8850   38.2300 H     203  SGN203      0.0000
   1577  H3       -31.4910   39.0650   38.3120 H     203  SGN203      0.0000
   1578  H3       -31.4990   38.5960   38.1760 H     203  SGN203      0.0194
   1579  H3       -31.1620   39.6160   38.7470 H     203  SGN203      0.0000
   1580  H3       -30.7140   39.7440   38.5670 H     203  SGN203      0.0000
   1581  O3       -31.4210   36.2250   33.0770 O.3   202  IDS202     -0.3863
   1582  O3       -30.9180   36.4040   32.6650 O.3   202  IDS202     -0.2203
   1583  O3       -31.1710   36.5990   32.5190 O.2   202  IDS202      0.0000
   1584  O3       -31.1310   36.0390   32.5720 O.3   202  IDS202     -0.0717
   1585  O3       -30.6680   36.1780   32.7780 O.3   202  IDS202     -0.2179
   1586  O3       -29.7700   36.8890   32.9880 O.3   202  IDS202     -0.4105
   1587  O3       -29.9720   37.1880   32.9440 O.3   202  IDS202     -0.4105
   1588  O3       -30.1960   36.0170   32.3900 O.3   202  IDS202     -0.2528
   1589  O3       -30.9620   35.9130   33.0930 O.3   202  IDS202     -0.0359
   1590  O3       -29.8280   36.0630   32.5920 O.3   202  IDS202     -0.2528
   1591  O3       -29.5300   36.4660   32.8320 O.3   202  IDS202     -0.2203
   1592  O3       -30.4790   37.0020   32.8940 O.3   202  IDS202     -0.2499
   1593  O3       -30.1660   36.5180   33.0030 O.3   202  IDS202     -0.2203
   1594  O3       -30.8850   36.6690   32.8110 O.2   202  IDS202      0.0000
   1595  O3       -31.0860   36.6380   33.6970 O.3   202  IDS202     -0.0359
   1596  O3       -29.8320   36.1890   32.9260 O.3   202  IDS202     -0.0717
   1597  O3       -30.3610   36.6550   33.2750 O.3   202  IDS202     -0.2341
   1598  O3       -31.0710   35.8020   33.0020 O.3   202  IDS202     -0.2203
   1599  O3       -31.2830   36.1980   33.6290 O.3   202  IDS202     -0.0049
   1600  O3       -30.6420   36.6130   33.8450 O.3   202  IDS202     -0.2179
   1601  HO3      -32.2850   36.3710   33.4710 H     202  IDS202      0.2100
   1602  HO3      -31.1300   37.3290   32.8170 H     202  IDS202      0.0000
   1603  HO3      -30.7730   36.4200   31.6630 H     202  IDS202      0.0000
   1604  HO3      -30.5880   35.8700   31.7970 H     202  IDS202      0.0000
   1605  HO3      -30.8510   37.1190   32.7360 H     202  IDS202      0.2531
   1606  HO3      -29.6520   37.8420   32.9670 H     202  IDS202      0.0000
   1607  HO3      -29.3800   37.9170   32.7420 H     202  IDS202      0.0000
   1608  HO3      -30.2600   36.9580   32.5660 H     202  IDS202      0.2052
   1609  HO3      -31.7540   35.4330   33.3460 H     202  IDS202      0.0000
   1610  HO3      -30.0490   35.2760   32.0900 H     202  IDS202      0.2563
   1611  HO3      -29.8110   35.6430   32.4260 H     202  IDS202      0.2528
   1612  HO3      -29.9970   37.8210   32.7560 H     202  IDS202      0.0000
   1613  HO3      -29.7830   36.2520   32.1640 H     202  IDS202      0.2528
   1614  HO3      -30.2670   36.5610   32.0850 H     202  IDS202      0.0000
   1615  HO3      -30.8200   37.5550   33.6000 H     202  IDS202      0.0000
   1616  HO3      -29.1300   36.2790   32.2780 H     202  IDS202      0.0000
   1617  HO3      -29.6670   36.6300   32.6120 H     202  IDS202      0.2052
   1618  HO3      -30.5800   36.3910   32.4250 H     202  IDS202      0.2562
   1619  HO3      -31.7770   35.4160   33.3730 H     202  IDS202      0.0000
   1620  HO3      -30.7940   37.5590   33.8950 H     202  IDS202      0.2563
   1621  H69      -27.1140   32.7970   33.7280 H     201  LVZ201      0.0601
   1622  H69      -26.4650   32.4900   33.5160 H     201  LVZ201      0.0000
   1623  H69      -26.8020   32.7890   32.9970 H     201  LVZ201      0.0000
   1624  H69      -26.6470   32.5870   33.5440 H     201  LVZ201      0.0000
   1625  H69      -26.6240   32.4670   33.5520 H     201  LVZ201      0.0000
   1626  H69      -26.2220   32.4130   33.2280 H     201  LVZ201      0.0000
   1627  H69      -25.9600   32.6120   33.5560 H     201  LVZ201      0.0000
   1628  H69      -26.1750   32.1140   33.0250 H     201  LVZ201      0.0194
   1629  H69      -26.4860   32.4250   33.9090 H     201  LVZ201      0.0265
   1630  H69      -25.8180   32.2600   34.1820 H     201  LVZ201      0.0194
   1631  H69      -26.1590   32.3860   33.8560 H     201  LVZ201      0.0265
   1632  H69      -26.8280   32.7980   33.3040 H     201  LVZ201      0.0000
   1633  H69      -26.3970   32.7110   33.5530 H     201  LVZ201      0.0000
   1634  H69      -27.4140   32.4610   33.3610 H     201  LVZ201      0.0000
   1635  H69      -26.9190   32.7620   33.5930 H     201  LVZ201      0.0000
   1636  H69      -26.4050   31.8610   32.8930 H     201  LVZ201      0.0194
   1637  H69      -26.5640   32.4550   33.5700 H     201  LVZ201      0.0000
   1638  H69      -25.7530   32.4860   33.5180 H     201  LVZ201      0.0000
   1639  H69      -26.3600   32.6020   33.6380 H     201  LVZ201      0.0000
   1640  H69      -26.0350   30.4410   32.8840 H     201  LVZ201      0.0194
   1641  H2       -26.5220   26.7680   33.1470 H     201  LVZ201      0.0254
   1642  H2       -25.5940   26.9280   32.6880 H     201  LVZ201      0.0000
   1643  H2       -26.6830   26.2180   32.9700 H     201  LVZ201      0.0000
   1644  H2       -26.8350   26.6050   32.6330 H     201  LVZ201      0.0230
   1645  H2       -26.6690   27.3120   33.4040 H     201  LVZ201      0.0263
   1646  H2       -25.9740   26.2590   32.9060 H     201  LVZ201      0.0000
   1647  H2       -26.2320   26.6040   32.9360 H     201  LVZ201      0.0000
   1648  H2       -26.5830   25.9620   33.0000 H     201  LVZ201      0.0000
   1649  H2       -26.7210   28.4250   33.2380 H     201  LVZ201      0.0000
   1650  H2       -26.8190   26.1570   33.3430 H     201  LVZ201      0.0000
   1651  H2       -30.0820   28.1290   32.8180 H     201  LVZ201      0.0000
   1652  H2       -26.7050   28.0510   32.8120 H     201  LVZ201      0.0233
   1653  H2       -27.1980   28.4290   33.0790 H     201  LVZ201      0.0000
   1654  H2       -27.7910   28.0540   32.9510 H     201  LVZ201      0.0000
   1655  H2       -29.6320   27.0760   33.2040 H     201  LVZ201      0.0000
   1656  H2       -28.1260   26.5340   32.6220 H     201  LVZ201      0.0000
   1657  H2       -27.2470   28.3140   33.0600 H     201  LVZ201      0.0000
   1658  H2       -28.1170   26.5410   33.1960 H     201  LVZ201      0.0000
   1659  H2       -25.7650   27.0770   35.2800 H     201  LVZ201      0.0000
   1660  H2       -27.5110   26.3390   33.0310 H     201  LVZ201      0.0000
   1661  O3S      -30.0480   27.4350   39.9950 O.3   201  LVZ201     -0.2626
   1662  O3S      -29.6730   27.0100   39.5070 O.3   201  LVZ201     -0.0359
   1663  O3S      -29.5820   27.7230   39.5890 O.3   201  LVZ201     -0.0001
   1664  O3S      -29.4350   27.5650   39.9750 O.3   201  LVZ201     -0.0000
   1665  O3S      -29.7480   27.4930   39.8220 O.3   201  LVZ201     -0.2179
   1666  O3S      -30.0670   27.1660   39.2520 O.3   201  LVZ201     -0.4105
   1667  O3S      -29.9040   27.5680   39.4070 O.3   201  LVZ201     -0.0025
   1668  O3S      -27.3510   29.3220   39.9300 O.3   201  LVZ201     -0.2179
   1669  O3S      -29.9540   27.5080   40.3110 O.3   201  LVZ201     -0.0359
   1670  O3S      -30.3120   27.1970   39.5340 O.3   201  LVZ201     -0.2179
   1671  O3S      -29.9260   27.3220   39.7330 O.3   201  LVZ201     -0.0359
   1672  O3S      -30.0380   27.5650   39.5510 O.3   201  LVZ201     -0.0359
   1673  O3S      -29.5240   27.5220   39.8420 O.2   201  LVZ201      0.0000
   1674  O3S      -30.1650   27.8060   39.9970 O.3   201  LVZ201     -0.0049
   1675  O3S      -29.6080   27.5210   40.1040 O.3   201  LVZ201     -0.2179
   1676  O3S      -29.3650   26.7980   39.3220 O.3   201  LVZ201     -0.2179
   1677  O3S      -29.6630   27.1760   39.6280 O.2   201  LVZ201      0.0000
   1678  O3S      -29.4540   27.2800   39.6610 O.3   201  LVZ201     -0.0001
   1679  O3S      -29.8960   27.3330   39.6540 O.3   201  LVZ201     -0.0025
   1680  O3S      -29.4640   27.3220   39.9300 O.3   201  LVZ201     -0.4105
   1681  S29      -24.3450   31.0040   33.4160 S.3   201  LVZ201      0.2338
   1682  S29      -23.5870   30.9910   33.3650 S.3   201  LVZ201     -0.0960
   1683  S29      -24.2220   31.1440   32.2900 S.2   201  LVZ201      0.2278
   1684  S29      -24.0060   30.6730   33.2570 S.3   201  LVZ201     -0.0298
   1685  S29      -24.0200   30.6070   33.2710 S.3   201  LVZ201      0.1926
   1686  S29      -23.3370   31.0130   33.5150 S.3   201  LVZ201     -0.1960
   1687  S29      -23.5520   30.6360   33.2530 S.3   201  LVZ201     -0.0164
   1688  S29      -23.1410   30.6210   33.2590 S.3   201  LVZ201     -0.0984
   1689  S29      -23.8330   30.7610   33.4370 S.3   201  LVZ201      0.0049
   1690  S29      -23.7640   30.2280   32.9970 S.3   201  LVZ201     -0.0993
   1691  S29      -24.7190   29.7550   32.4410 S.O   201  LVZ201      0.1709
   1692  S29      -24.0260   31.0200   33.2820 S.3   201  LVZ201      0.0176
   1693  S29      -23.8130   30.8350   32.8750 S.3   201  LVZ201     -0.0993
   1694  S29      -24.3990   31.6440   33.1480 S.3   201  LVZ201      0.0048
   1695  S29      -24.0120   31.3140   33.4670 S.3   201  LVZ201      0.0539
   1696  S29      -23.5100   30.4540   33.0080 S.3   201  LVZ201      0.2307
   1697  S29      -23.6270   31.1690   33.5750 S.3   201  LVZ201      0.0049
   1698  S29      -23.5620   30.8660   32.9250 S.2   201  LVZ201     -0.0011
   1699  S29      -24.1240   31.3240   32.9050 S.3   201  LVZ201      0.0014
   1700  S29      -23.7070   32.0700   33.2280 S.3   201  LVZ201      0.0183
   1701  H61      -36.5460   38.1010   36.9930 H     203  SGN203      0.0601
   1702  H61      -35.7590   37.9140   38.1030 H     203  SGN203      0.2563
   1703  H61      -35.5800   38.3430   37.3840 H     203  SGN203      0.0000
   1704  H61      -36.1340   39.0470   36.8380 H     203  SGN203      0.0000
   1705  H61      -35.4160   38.2490   37.9740 H     203  SGN203      0.0194
   1706  H61      -35.5050   38.3660   37.5100 H     203  SGN203      0.0194
   1707  H61      -35.8020   38.2480   36.9270 H     203  SGN203      0.0000
   1708  H61      -34.8850   38.3970   36.6130 H     203  SGN203      0.0265
   1709  H61      -35.2560   39.0560   36.8440 H     203  SGN203      0.0000
   1710  H61      -35.1690   38.6980   35.6680 H     203  SGN203      0.0265
   1711  H61      -35.7300   38.3000   35.6590 H     203  SGN203      0.0000
   1712  H61      -35.7530   38.9190   37.4130 H     203  SGN203      0.0194
   1713  H61      -35.8620   38.9620   36.8710 H     203  SGN203      0.0000
   1714  H61      -35.9250   39.0800   37.2110 H     203  SGN203      0.0000
   1715  H61      -35.5760   39.5300   38.5790 H     203  SGN203      0.0000
   1716  H61      -35.6210   37.7140   36.7420 H     203  SGN203      0.0265
   1717  H61      -35.5850   37.2370   38.1110 H     203  SGN203      0.0000
   1718  H61      -35.8850   37.2560   37.7570 H     203  SGN203      0.1353
   1719  H61      -35.3500   38.0380   39.3350 H     203  SGN203      0.0000
   1720  H61      -35.1740   38.3490   39.2020 H     203  SGN203      0.0000
   1721  H1       -26.5190   27.1750   35.7060 H     201  LVZ201      0.0591
   1722  H1       -25.7740   26.8480   35.3690 H     201  LVZ201      0.0194
   1723  H1       -26.3240   27.1680   34.9910 H     201  LVZ201      0.0230
   1724  H1       -26.2110   27.2540   34.8540 H     201  LVZ201      0.0194
   1725  H1       -26.9640   26.4340   36.2890 H     201  LVZ201      0.0000
   1726  H1       -26.4190   26.5250   35.4310 H     201  LVZ201      0.0000
   1727  H1       -26.6430   26.8100   35.3090 H     201  LVZ201      0.0227
   1728  H1       -26.0840   26.3830   35.6630 H     201  LVZ201      0.0000
   1729  H1       -26.6180   27.0550   35.3250 H     201  LVZ201      0.0000
   1730  H1       -26.5770   26.4310   36.0270 H     201  LVZ201      0.0000
   1731  H1       -27.3830   27.3840   34.1000 H     201  LVZ201      0.0230
   1732  H1       -27.1190   26.3640   35.2760 H     201  LVZ201      0.0000
   1733  H1       -26.6500   26.6440   35.5770 H     201  LVZ201      0.0000
   1734  H1       -27.2430   26.7120   35.6570 H     201  LVZ201      0.0000
   1735  H1       -27.3440   27.4490   34.9040 H     201  LVZ201      0.0230
   1736  H1       -25.5910   27.3750   33.8710 H     201  LVZ201      0.0000
   1737  H1       -26.6780   26.4150   35.3520 H     201  LVZ201      0.0227
   1738  H1       -25.9540   28.4160   33.8260 H     201  LVZ201      0.0000
   1739  H1       -28.1660   26.5420   35.2410 H     201  LVZ201      0.0529
   1740  H1       -27.1990   26.5080   35.3420 H     201  LVZ201      0.0000
   1741  O3S      -28.7270   41.1160   34.9400 O.3   203  SGN203     -0.1238
   1742  O3S      -28.4580   40.6550   34.6570 O.2   203  SGN203      0.0000
   1743  O3S      -28.0530   41.1230   34.2680 O.3   203  SGN203     -0.4105
   1744  O3S      -28.3410   40.5370   34.5130 O.3   203  SGN203     -0.4105
   1745  O3S      -29.8220   41.6520   33.8350 O.3   203  SGN203     -0.2179
   1746  O3S      -28.2390   40.9550   34.5640 O.3   203  SGN203     -0.2179
   1747  O3S      -28.0840   41.1330   34.5660 O.2   203  SGN203      0.0000
   1748  O3S      -27.4970   41.3840   34.3260 O.2   203  SGN203      0.0000
   1749  O3S      -27.3640   40.7850   34.4200 O.2   203  SGN203      0.0000
   1750  O3S      -27.8380   41.5240   34.2980 O.3   203  SGN203     -0.2203
   1751  O3S      -28.1840   41.3660   34.5020 O.3   203  SGN203     -0.0717
   1752  O3S      -28.0960   41.3310   34.6620 O.3   203  SGN203     -0.0359
   1753  O3S      -27.8850   41.0170   34.3200 O.3   203  SGN203     -0.2203
   1754  O3S      -28.3510   41.3950   34.4190 O.2   203  SGN203      0.0000
   1755  O3S      -28.3470   41.2460   34.3330 O.3   203  SGN203     -0.0039
   1756  O3S      -28.1090   40.8000   35.1340 O.2   203  SGN203      0.0000
   1757  O3S      -28.6910   41.4260   34.8300 O.3   203  SGN203     -0.4105
   1758  O3S      -30.7490   41.6660   34.9370 O.3   203  SGN203     -0.0717
   1759  O3S      -28.5120   40.7890   34.5890 O.3   203  SGN203     -0.2346
   1760  O3S      -30.9220   41.7330   34.5790 O.3   203  SGN203     -0.2203
   1761  S1       -30.1290   40.9090   34.7020 S.3   203  SGN203      0.1672
   1762  S1       -29.8080   40.2380   34.5660 S.3   203  SGN203     -0.0994
   1763  S1       -29.3540   40.6300   34.0420 S.3   203  SGN203     -0.0154
   1764  S1       -29.6860   40.2050   34.1910 S.3   203  SGN203     -0.0000
   1765  S1       -29.4840   40.2570   33.8320 S.3   203  SGN203     -0.0010
   1766  S1       -29.6000   40.6400   34.3690 S.3   203  SGN203     -0.0983
   1767  S1       -29.4490   40.7250   34.3570 S.3   203  SGN203     -0.1137
   1768  S1       -28.6100   40.5580   34.0660 S.3   203  SGN203      0.0183
   1769  S1       -28.5030   39.9070   34.4330 S.3   203  SGN203     -0.1960
   1770  S1       -29.1240   40.8450   34.0810 S.3   203  SGN203     -0.1137
   1771  S1       -29.4050   40.6680   34.1990 S.3   203  SGN203     -0.1960
   1772  S1       -29.4600   40.9550   34.3790 S.2   203  SGN203     -0.0000
   1773  S1       -29.2070   40.5630   34.1870 S.3   203  SGN203     -0.1960
   1774  S1       -29.5420   40.6250   34.1120 S.3   203  SGN203     -0.0000
   1775  S1       -29.6290   40.6330   34.4370 S.3   203  SGN203     -0.0994
   1776  S1       -29.4540   40.2950   34.9950 S.3   203  SGN203     -0.0994
   1777  S1       -30.0160   40.8190   34.7330 S.3   203  SGN203     -0.0994
   1778  S1       -30.0170   40.4700   34.6660 S.3   203  SGN203     -0.0472
   1779  S1       -29.9090   40.3740   34.6750 S.3   203  SGN203     -0.0308
   1780  S1       -30.0540   40.6150   34.5300 S.3   203  SGN203     -0.0308
   1781  H19      -26.8870   28.7390   37.3070 H     201  LVZ201      0.0927
   1782  H19      -26.5830   28.2890   36.9930 H     201  LVZ201      0.0000
   1783  H19      -26.6340   28.7030   36.5830 H     201  LVZ201      0.0343
   1784  H19      -26.4640   28.3700   36.8250 H     201  LVZ201      0.0000
   1785  H19      -26.6450   28.4990   37.1870 H     201  LVZ201      0.0000
   1786  H19      -26.4750   28.4390   36.9390 H     201  LVZ201      0.0000
   1787  H19      -26.7120   28.5160   36.7040 H     201  LVZ201      0.0232
   1788  H19      -25.9790   28.3830   37.0950 H     201  LVZ201      0.0000
   1789  H19      -26.9020   28.1200   37.3680 H     201  LVZ201      0.0000
   1790  H19      -26.8360   27.9260   37.4960 H     201  LVZ201      0.0000
   1791  H19      -27.3880   27.8810   36.5020 H     201  LVZ201      0.0000
   1792  H19      -27.0090   28.5650   36.8390 H     201  LVZ201      0.0194
   1793  H19      -26.4040   28.4620   37.0590 H     201  LVZ201      0.0000
   1794  H19      -27.0930   28.4940   36.9990 H     201  LVZ201      0.0000
   1795  H19      -27.1300   28.4060   36.8640 H     201  LVZ201      0.0000
   1796  H19      -26.1880   27.7830   36.4810 H     201  LVZ201      0.0000
   1797  H19      -26.5130   28.2700   36.8940 H     201  LVZ201      0.0000
   1798  H19      -26.4190   28.1170   36.7140 H     201  LVZ201      0.0000
   1799  H19      -26.6690   28.3640   36.8540 H     201  LVZ201      0.0000
   1800  H19      -26.6320   27.9440   36.8040 H     201  LVZ201      0.0000
   1801 H         -27.3330   24.8610   34.5240 H     201  LVZ201      0.0000
   1802 H         -28.5990   26.3310   34.8320 H     201  LVZ201      0.0000
   1803 H         -26.7570   24.6400   35.5200 H     201  LVZ201      0.0000
   1804 H         -27.7590   25.7880   36.2970 H     201  LVZ201      0.0000
   1805 H         -28.2860   25.6970   36.1870 H     201  LVZ201      0.0000
   1806 H         -29.4960   25.9980   34.3430 H     201  LVZ201      0.0000
   1807 H         -28.1300   25.4290   34.0220 H     201  LVZ201      0.0000
   1808 H         -29.4770   26.1260   35.2450 H     201  LVZ201      0.0000
   1809 H         -26.6780   24.9290   34.2280 H     201  LVZ201      0.0000
   1810 H         -24.8140   26.5660   35.6490 H     201  LVZ201      0.0000
   1811 H         -29.1800   26.8070   33.8300 H     201  LVZ201      0.0000
   1812 H         -28.8750   26.0380   36.2820 H     201  LVZ201      0.0000
   1813 H         -26.9240   25.6120   36.3510 H     201  LVZ201      0.0000
   1814 H         -26.8210   25.5370   36.3150 H     201  LVZ201      0.0000
   1815 H         -28.7220   25.7340   35.1170 H     201  LVZ201      0.0000
   1816 H         -27.0700   24.6830   34.2930 H     201  LVZ201      0.0000
   1817 H         -27.9720   25.7350   36.2950 H     201  LVZ201      0.0000
   1818 H         -27.7200   25.6380   33.0610 H     201  LVZ201      0.0000
   1819 H         -28.6910   25.8390   35.6990 H     201  LVZ201      0.0000
   1820 H         -27.9280   25.3530   35.2340 H     201  LVZ201      0.0000
   1821 H         -24.9540   25.1700   33.8480 H     201  LVZ201      0.0000
   1822 H         -27.4130   25.3110   33.6350 H     201  LVZ201      0.0000
   1823 H         -25.7690   25.4570   34.6710 H     201  LVZ201      0.0000
   1824 H         -29.5510   26.2510   34.6840 H     201  LVZ201      0.0000
   1825 H         -32.8370   39.0400   38.5700 H     203  SGN203      0.2052
   1826 H         -34.1303   39.6973   37.9341 H     203  SGN203      0.2052
   1827 H         -32.3150   39.5410   38.7420 H     203  SGN203      0.2052
   1828 H         -33.6083   40.3722   39.1234 H     203  SGN203      0.2052
   1829 H         -33.1520   39.4790   38.2560 H     203  SGN203      0.2052
   1830 H         -34.4453   40.1600   38.8664 H     203  SGN203      0.2052
   1831 H         -33.8696   39.7928   39.2014 H     203  SGN203      0.2528
   1832 H         -32.9653   38.8841   40.2898 H     203  SGN203      0.2052
   1833 H         -32.9284   39.8705   40.8274 H     203  SGN203      0.2052
   1834 H         -26.5498   26.8924   33.9004 H     201  LVZ201      0.0230
   1835 H         -28.0478   26.8288   34.1139 H     201  LVZ201      0.0230
   1836 H         -26.7414   27.2360   32.4630 H     201  LVZ201      0.0230
   1837 H         -27.5757   26.4942   33.9386 H     201  LVZ201      0.0230
   1838 H         -25.7262   26.1903   34.2452 H     201  LVZ201      0.0194
   1839 H         -27.1650   27.1991   33.9609 H     201  LVZ201      0.0194
   1840 H         -27.4583   26.7146   32.8815 H     201  LVZ201      0.0305
   1841 H         -27.0878   27.8483   34.1991 H     201  LVZ201      0.0233
   1842 H         -25.4464   27.6948   33.3344 H     201  LVZ201      0.0233
   1843 H         -28.4997   28.0192   33.6370 H     201  LVZ201      0.0260
   1844 H         -27.2417   26.5197   34.7392 H     201  LVZ201      0.0532
   1845 H         -26.6657   28.0700   34.0610 H     201  LVZ201      0.0532
   1846 H         -30.0795   27.5363   32.7057 H     201  LVZ201      0.0194
   1847 H         -28.7322   27.9528   31.7861 H     201  LVZ201      0.0194
   1848 H         -25.7245   28.2001   33.4346 H     201  LVZ201      0.0263
   1849 H         -26.9271   26.9614   34.3300 H     201  LVZ201      0.0194
   1850 H         -27.3900   27.4640   32.9907 H     201  LVZ201      0.0194
   1851 H         -26.3174   27.3115   33.1552 H     201  LVZ201      0.0230
   1852 H         -27.5289   26.7012   34.2566 H     201  LVZ201      0.0230
   1853 H         -26.9621   28.3473   34.4061 H     201  LVZ201      0.0230
   1854 H         -29.7392   28.0329   33.4690 H     201  LVZ201      0.0230
   1855 H         -27.8964   27.5690   34.1243 H     201  LVZ201      0.0230
   1856 H         -27.9556   27.8177   32.1708 H     201  LVZ201      0.0230
   1857 H         -27.3578   28.1795   33.1849 H     201  LVZ201      0.0529
   1858 H         -26.8046   26.7917   34.1661 H     201  LVZ201      0.0529
   1859 H         -28.4128   27.5683   32.6390 H     201  LVZ201      0.0260
   1860 H         -26.8201   28.1478   33.1580 H     201  LVZ201      0.0260
   1861 H         -26.1925   28.1613   34.3970 H     201  LVZ201      0.0263
   1862 H         -25.3817   26.6448   34.4311 H     201  LVZ201      0.0263
   1863 H         -27.4038   27.0439   34.4072 H     201  LVZ201      0.0194
   1864 H         -28.3369   26.3978   33.0787 H     201  LVZ201      0.0194
   1865 H         -28.5922   28.0438   33.6064 H     201  LVZ201      0.0194
   1866 H         -30.9938   36.1401   35.2128 H     202  IDS202      0.2562
   1867 H         -30.4740   36.9640   35.6310 H     202  IDS202      0.2052
   1868 H         -31.7673   36.3211   36.2814 H     202  IDS202      0.2052
   1869 H         -30.5340   38.0995   35.8019 H     202  IDS202      0.2562
   1870 H         -29.8210   37.3740   35.8520 H     202  IDS202      0.2052
   1871 H         -31.1143   36.4626   35.7762 H     202  IDS202      0.2052
   1872 H         -30.0525   37.5954   36.1474 H     202  IDS202      0.2052
   1873 H         -30.5090   37.4940   36.9443 H     202  IDS202      0.2562
   1874 H         -30.5429   37.0418   34.6194 H     202  IDS202      0.2562
   1875 H         -29.9620   37.4540   35.9100 H     202  IDS202      0.2052
   1876 H         -31.2553   37.0976   35.0678 H     202  IDS202      0.2052
   1877 H         -29.8392   37.6884   35.8226 H     202  IDS202      0.2562
   1878 H         -30.6104   36.1254   36.7239 H     202  IDS202      0.2094
   1879 H         -29.8330   37.1370   36.7910 H     202  IDS202      0.2052
   1880 H         -31.1263   36.4928   36.1418 H     202  IDS202      0.2052
   1881 H         -26.9499   33.8531   30.3648 H     202  IDS202      0.2543
   1882 H         -26.4268   34.8671   30.2502 H     202  IDS202      0.2562
   1883 H         -27.1910   34.1170   31.0810 H     202  IDS202      0.2052
   1884 H         -28.4843   34.9185   30.6405 H     202  IDS202      0.2052
   1885 H         -25.0240   34.1230   30.5530 H     202  IDS202      0.2052
   1886 H         -26.3173   34.9918   30.2675 H     202  IDS202      0.2052
   1887 H         -25.7370   34.3040   31.1100 H     202  IDS202      0.2052
   1888 H         -27.0303   33.5430   31.6171 H     202  IDS202      0.2052
   1889 H         -26.9634   35.2653   31.4766 H     202  IDS202      0.2563
   1890 H         -30.1270   33.1819   31.3634 H     202  IDS202      0.2543
   1891 H         -36.1454   37.1341   38.8913 H     203  SGN203      0.2323
   1892 H         -34.7906   34.7999   38.9757 H     203  SGN203      0.2563
   1893 H         -36.4010   36.2270   38.8050 H     203  SGN203      0.2052
   1894 H         -37.6943   35.7175   38.0455 H     203  SGN203      0.2052
   1895 H         -37.7477   37.5695   38.5111 H     203  SGN203      0.2562
   1896 H         -36.4262   36.3610   37.0013 H     203  SGN203      0.2324
   1897 H         -38.4166   36.9459   38.8214 H     203  SGN203      0.2563
   1898 H         -35.8350   36.0620   38.3180 H     203  SGN203      0.2052
   1899 H         -37.1283   36.7151   38.9581 H     203  SGN203      0.2052
   1900 H         -35.1790   34.4440   38.7610 H     203  SGN203      0.2052
   1901 H         -36.4723   33.6461   38.3140 H     203  SGN203      0.2052
   1902 H         -29.8433   29.9608   37.6283 H     201  LVZ201      0.1582
   1903 H         -28.9950   29.3480   38.9910 H     201  LVZ201      0.1257
   1904 H         -29.8781   28.5579   38.7897 H     201  LVZ201      0.1612
   1905 H         -29.9977   29.6738   37.2408 H     201  LVZ201      0.1038
   1906 H         -28.5991   28.7765   37.1264 H     201  LVZ201      0.1038
   1907 H         -28.6847   29.7037   37.2337 H     201  LVZ201      0.1598
   1908 H         -28.6512   28.4665   38.9793 H     201  LVZ201      0.1398
   1909 H         -30.2015   28.3831   38.3758 H     201  LVZ201      0.1398
   1910 H         -29.9454   28.1543   37.3444 H     201  LVZ201      0.1646
   1911 H         -28.3298   28.4591   38.2200 H     201  LVZ201      0.1381
   1912 H         -29.8613   28.9369   38.6678 H     201  LVZ201      0.1381
   1913 H         -30.3150   28.6499   38.6614 H     201  LVZ201      0.1646
   1914 H         -28.2635   27.5056   38.0262 H     201  LVZ201      0.1146
   1915 H         -29.0150   28.9522   38.3683 H     201  LVZ201      0.1146
   1916 H         -28.3634   28.9826   37.2372 H     201  LVZ201      0.1382
   1917 H         -29.8826   28.3097   37.3538 H     201  LVZ201      0.1382
   1918 H         -28.3049   29.4585   37.4197 H     201  LVZ201      0.2112
   1919 H         -28.7885   29.9725   38.6943 H     201  LVZ201      0.1627
   1920 H         -28.8960   37.0170   33.5880 H     202  IDS202      0.0000
   1921 H         -29.1890   36.6230   34.0120 H     202  IDS202      0.0000
   1922 H         -28.6890   36.7400   34.1540 H     202  IDS202      0.0000
   1923 H         -28.0900   36.9030   34.7920 H     202  IDS202      0.0000
   1924 H         -28.2490   37.3020   34.5230 H     202  IDS202      0.0000
   1925 H         -27.8650   36.2840   33.6280 H     202  IDS202      0.0000
   1926 H         -27.9050   36.6350   34.0140 H     202  IDS202      0.0000
   1927 H         -28.0730   37.0170   34.6730 H     202  IDS202      0.0000
   1928 H         -28.4250   37.1580   34.2010 H     202  IDS202      0.0000
   1929 H         -28.3170   37.1960   34.5690 H     202  IDS202      0.0000
   1930 H         -27.9020   36.1460   34.4720 H     202  IDS202      0.0000
   1931 H         -28.4160   36.8840   34.9100 H     202  IDS202      0.0000
   1932 H         -29.0390   36.8240   34.7490 H     202  IDS202      0.0000
   1933 H         -28.4600   36.9220   35.1090 H     202  IDS202      0.0000
   1934 H         -26.3260   28.1470   32.8060 H     201  LVZ201      0.0000
   1935 H         -27.7820   26.6600   32.9450 H     201  LVZ201      0.0000
   1936 H         -27.8970   26.8450   32.8530 H     201  LVZ201      0.0000
   1937 H         -24.9680   28.0190   34.6780 H     201  LVZ201      0.0000
   1938 H         -26.7310   27.2830   32.5860 H     201  LVZ201      0.0000
   1939 H         -26.5070   28.0090   32.5520 H     201  LVZ201      0.0000
   1940 H         -26.8820   27.7330   33.4440 H     201  LVZ201      0.0000
   1941 H         -27.8770   28.6880   32.5000 H     201  LVZ201      0.0000
   1942 H         -25.0310   28.0460   34.1690 H     201  LVZ201      0.0000
   1943 H         -25.1500   28.3410   34.0140 H     201  LVZ201      0.0000
   1944 H         -28.2080   28.6400   33.0380 H     201  LVZ201      0.0000
   1945 H         -26.8070   28.1670   32.2800 H     201  LVZ201      0.0000
   1946 H         -25.0450   27.9530   33.8770 H     201  LVZ201      0.0000
   1947 H         -27.3720   28.1710   32.5890 H     201  LVZ201      0.0000
   1948 H         -33.3470   39.7960   37.6190 H     203  SGN203      0.0000
   1949 H         -33.1730   40.4440   36.7320 H     203  SGN203      0.0000
   1950 H         -33.5850   40.1570   36.9430 H     203  SGN203      0.0000
   1951 H         -33.0980   40.2870   36.8440 H     203  SGN203      0.0000
   1952 H         -33.4960   40.1130   36.7460 H     203  SGN203      0.0000
   1953 H         -32.8470   40.4190   36.6720 H     203  SGN203      0.0000
   1954 H         -33.4020   40.0120   36.3090 H     203  SGN203      0.0000
   1955 H         -33.1190   40.5480   36.6110 H     203  SGN203      0.0000
   1956 H         -33.1270   40.6620   36.5890 H     203  SGN203      0.0000
   1957 H         -33.3840   40.8130   36.8370 H     203  SGN203      0.0000
   1958 H         -33.1030   41.2550   37.4560 H     203  SGN203      0.0000
   1959 H         -33.7510   39.8020   37.5690 H     203  SGN203      0.0000
   1960 H         -33.6410   39.5690   37.1770 H     203  SGN203      0.0000
   1961 H         -32.9530   40.1920   37.9380 H     203  SGN203      0.0000
   1962 H         -27.3598   25.7283   33.4204 H     201  LVZ201      0.0194
   1963 H         -26.4460   25.8269   34.9064 H     201  LVZ201      0.0194
   1964 H         -28.0923   26.4100   34.8528 H     201  LVZ201      0.0194
   1965 H         -28.7793   26.2860   35.6441 H     201  LVZ201      0.1225
   1966 H         -26.7657   25.1410   34.9559 H     201  LVZ201      0.1225
   1967 H         -28.7578   26.4266   35.5002 H     201  LVZ201      0.0230
   1968 H         -27.2915   25.7561   34.8266 H     201  LVZ201      0.0230
   1969 H         -28.8034   24.8967   34.6574 H     201  LVZ201      0.0230
   1970 H         -27.6163   25.7995   35.3203 H     201  LVZ201      0.0230
   1971 H         -27.5549   25.3397   33.6257 H     201  LVZ201      0.0230
   1972 H         -27.7644   27.1021   34.3459 H     201  LVZ201      0.0194
   1973 H         -27.9374   25.3854   34.6216 H     201  LVZ201      0.0194
   1974 H         -29.3542   26.4050   34.5443 H     201  LVZ201      0.0194
   1975 H         -27.4485   26.3370   35.8277 H     201  LVZ201      0.0227
   1976 H         -27.4187   25.0606   34.6348 H     201  LVZ201      0.0227
   1977 H         -28.2232   24.8076   36.1651 H     201  LVZ201      0.0227
   1978 H         -28.4147   26.8045   35.8678 H     201  LVZ201      0.0194
   1979 H         -28.3924   26.2680   34.2051 H     201  LVZ201      0.0194
   1980 H         -27.6787   25.2750   35.4531 H     201  LVZ201      0.0194
   1981 H         -29.0209   26.1479   35.9673 H     201  LVZ201      0.0227
   1982 H         -28.2525   26.4452   34.4712 H     201  LVZ201      0.0227
   1983 H         -28.3299   26.6378   35.3062 H     201  LVZ201      0.0194
   1984 H         -27.9347   26.7492   34.4394 H     201  LVZ201      0.0194
   1985 H         -27.6575   26.8112   34.8415 H     201  LVZ201      0.0529
   1986 H         -29.8145   25.6604   34.2584 H     201  LVZ201      0.0529
   1987 H         -29.2582   26.7202   35.5859 H     201  LVZ201      0.0529
   1988 H         -29.7278   27.0521   35.8252 H     201  LVZ201      0.0227
   1989 H         -28.1450   26.6789   35.1861 H     201  LVZ201      0.0227
   1990 H         -28.8575   25.6539   36.4088 H     201  LVZ201      0.0227
   1991 H         -25.7818   26.0979   35.0858 H     201  LVZ201      0.0194
   1992 H         -29.3935   26.0947   33.8453 H     201  LVZ201      0.0260
   1993 H         -28.2335   27.0126   33.8160 H     201  LVZ201      0.0260
   1994 H         -26.0338   25.4208   35.0491 H     201  LVZ201      0.0194
   1995 H         -26.3028   27.2057   34.1433 H     201  LVZ201      0.0194
   1996 H         -30.1728   25.5962   35.5940 H     201  LVZ201      0.0227
   1997 H         -29.4247   26.6279   34.3685 H     201  LVZ201      0.0227
   1998 H         -28.9650   39.2240   33.6130 H     203  SGN203      0.2052
   1999 H         -30.2583   38.5462   34.2270 H     203  SGN203      0.2052
   2000 H         -28.6951   39.7025   32.3673 H     203  SGN203      0.2563
   2001 H         -28.8030   39.1440   33.1380 H     203  SGN203      0.2052
   2002 H         -30.0963   40.0532   33.2370 H     203  SGN203      0.2052
   2003 H         -27.1510   38.5770   34.0570 H     203  SGN203      0.2052
   2004 H         -28.4443   37.7952   33.5826 H     203  SGN203      0.2052
   2005 H         -27.9860   39.8590   33.0270 H     203  SGN203      0.2052
   2006 H         -29.2793   39.2105   33.6718 H     203  SGN203      0.2052
   2007 H         -24.7140   32.3310   34.8850 H     201  LVZ201      0.0000
   2008 H         -24.7600   32.1740   34.7830 H     201  LVZ201      0.0000
   2009 H         -24.6370   32.1580   34.7010 H     201  LVZ201      0.0000
   2010 H         -24.3850   32.0590   35.0060 H     201  LVZ201      0.0000
   2011 H         -24.6730   32.0100   35.2170 H     201  LVZ201      0.0000
   2012 H         -25.6300   32.7610   34.6040 H     201  LVZ201      0.0000
   2013 H         -25.1740   32.6190   34.9380 H     201  LVZ201      0.0000
   2014 H         -24.7560   31.9380   34.3150 H     201  LVZ201      0.0000
   2015 H         -24.8630   32.4170   34.8420 H     201  LVZ201      0.0000
   2016 H         -24.5710   32.7910   35.1350 H     201  LVZ201      0.0000
   2017 H         -25.1530   33.0950   35.1590 H     201  LVZ201      0.0000
   2018 H         -25.9310   32.0840   33.2150 H     201  LVZ201      0.0000
   2019 H         -27.0160   34.2440   34.4560 H     202  IDS202      0.0000
   2020 H         -27.1330   34.2190   34.1610 H     202  IDS202      0.0000
   2021 H         -26.8420   34.2010   34.8130 H     202  IDS202      0.0000
   2022 H         -26.6290   34.2910   35.2200 H     202  IDS202      0.0000
   2023 H         -26.4650   34.6780   34.9080 H     202  IDS202      0.0000
   2024 H         -26.3580   33.8810   34.3940 H     202  IDS202      0.0000
   2025 H         -26.8240   34.1320   35.1410 H     202  IDS202      0.0000
   2026 H         -26.3140   33.9850   35.2390 H     202  IDS202      0.0000
   2027 H         -26.6150   34.2250   35.9760 H     202  IDS202      0.0000
   2028 H         -26.9800   34.4180   34.7770 H     202  IDS202      0.0000
   2029 H         -26.5440   34.3820   35.5680 H     202  IDS202      0.0000
   2030 H         -26.4420   33.4560   34.6970 H     202  IDS202      0.0000
   2031 H         -26.6690   34.2640   35.3210 H     202  IDS202      0.0000
   2032 H         -26.7200   34.3150   34.7230 H     202  IDS202      0.0000
   2033 H         -27.0250   34.3890   35.0600 H     202  IDS202      0.0000
   2034 H         -26.5650   34.3990   35.2660 H     202  IDS202      0.0000
   2035 H         -24.1551   31.9755   31.6682 H     201  LVZ201      0.2321
   2036 H         -22.9440   32.5530   32.2000 H     201  LVZ201      0.2052
   2037 H         -24.2373   31.7380   32.6150 H     201  LVZ201      0.2052
   2038 H         -22.5440   31.9170   32.7940 H     201  LVZ201      0.2052
   2039 H         -23.8373   31.5339   31.9636 H     201  LVZ201      0.2052
   2040 H         -22.5962   31.3517   31.9023 H     201  LVZ201      0.2563
   2041 H         -21.6510   31.9070   32.8620 H     201  LVZ201      0.2052
   2042 H         -22.9443   32.6363   33.4138 H     201  LVZ201      0.2052
   2043 H         -23.6727   32.9284   32.0735 H     201  LVZ201      0.2562
   2044 H         -23.0097   30.9462   32.9903 H     201  LVZ201      0.2562
   2045 H         -22.7740   32.1851   31.7676 H     201  LVZ201      0.2563
   2046 H         -24.2471   34.2090   33.2726 H     201  LVZ201      0.2563
   2047 H         -31.0744   36.4113   38.5905 H     202  IDS202      0.0998
   2048 H         -30.2640   34.4840   37.1580 H     202  IDS202      0.0194
   2049 H         -31.6907   35.3036   36.5698 H     202  IDS202      0.0194
   2050 H         -31.6907   34.5836   38.1619 H     202  IDS202      0.0194
   2051 H         -31.6907   33.5648   36.7423 H     202  IDS202      0.0194
   2052 H         -31.4803   35.9710   37.1001 H     202  IDS202      0.0271
   2053 H         -30.2463   35.4237   37.7943 H     202  IDS202      0.0271
   2054 H         -32.5522   33.5073   36.7574 H     202  IDS202      0.0556
   2055 H         -31.3855   34.5226   37.5704 H     202  IDS202      0.0556
   2056 H         -32.2114   35.1084   36.1463 H     202  IDS202      0.0556
   2057 H         -32.1993   34.0084   37.6275 H     202  IDS202      0.0304
   2058 H         -31.4112   33.5149   37.2496 H     202  IDS202      0.0297
   2059 H         -31.8923   35.1388   36.6411 H     202  IDS202      0.0265
   2060 H         -30.6594   36.0551   37.4378 H     202  IDS202      0.0265
   2061 H         -30.0862   35.1546   36.2813 H     202  IDS202      0.0268
   2062 H         -29.8585   34.2282   37.4689 H     202  IDS202      0.0268
   2063 H         -29.9919   34.7825   37.8476 H     202  IDS202      0.0236
   2064 H         -31.5151   34.5063   38.6578 H     202  IDS202      0.0236
   2065 H         -31.0478   36.1280   38.2051 H     202  IDS202      0.0236
   2066 H         -31.4503   34.1568   36.0928 H     202  IDS202      0.0304
   2067 H         -31.7781   35.9790   36.5978 H     202  IDS202      0.0634
   2068 H         -31.6992   35.5059   38.3371 H     202  IDS202      0.0268
   2069 H         -30.4715   34.5083   38.3923 H     202  IDS202      0.0268
   2070 H         -31.4562   35.8332   36.7808 H     202  IDS202      0.0932
   2071 H         -31.0042   34.8958   37.8758 H     202  IDS202      0.0932
   2072 H         -30.4610   35.4850   38.4700 H     202  IDS202      0.0194
   2073 H         -31.8877   36.4537   38.7517 H     202  IDS202      0.0194
   2074 H         -31.8877   34.7567   39.1681 H     202  IDS202      0.0194
   2075 H         -31.8877   35.2446   37.4903 H     202  IDS202      0.0194
   2076 H         -30.5551   34.0546   36.5615 H     202  IDS202      0.0255
   2077 H         -29.7652   33.6318   38.0616 H     202  IDS202      0.0255
   2078 H         -29.9116   35.3089   37.5938 H     202  IDS202      0.0255
   2079 H         -31.0991   35.4764   37.1969 H     202  IDS202      0.0255
   2080 H         -30.3378   35.1355   38.7323 H     202  IDS202      0.0255
   2081 H         -31.9292   34.5023   38.3865 H     202  IDS202      0.0255
   2082 H         -30.9306   33.5641   37.1144 H     202  IDS202      0.0623
   2083 H         -29.7100   34.7320   38.4370 H     202  IDS202      0.0194
   2084 H         -31.1367   35.7123   38.1987 H     202  IDS202      0.0194
   2085 H         -31.1367   34.4483   39.4051 H     202  IDS202      0.0194
   2086 H         -31.1367   34.0355   37.7072 H     202  IDS202      0.0194
   2087 H         -29.7589   34.0385   39.0684 H     202  IDS202      0.0556
   2088 H         -30.5016   35.6117   39.2315 H     202  IDS202      0.0556
   2089 H         -29.8531   35.1074   37.6894 H     202  IDS202      0.0556
   2090 H         -34.0651   35.2517   36.7971 H     202  IDS202      0.2563
   2091 H         -32.5012   33.4215   36.8938 H     202  IDS202      0.2563
   2092 H         -32.9768   35.7352   37.7006 H     202  IDS202      0.2563
   2093 H         -32.2909   34.7246   37.2162 H     202  IDS202      0.2052
   2094 H         -33.5928   35.9330   38.9608 H     202  IDS202      0.2532
   2095 H         -27.4092   27.9946   35.6893 H     201  LVZ201      0.0296
   2096 H         -26.3921   29.2618   35.4142 H     201  LVZ201      0.0233
   2097 H         -27.7990   30.1927   35.8692 H     201  LVZ201      0.0233
   2098 H         -27.9609   28.4958   35.4855 H     201  LVZ201      0.0233
   2099 H         -26.1540   28.9050   36.2540 H     201  LVZ201      0.0194
   2100 H         -27.5807   29.8286   35.8481 H     201  LVZ201      0.0194
   2101 H         -27.5807   28.7947   37.2568 H     201  LVZ201      0.0194
   2102 H         -27.5807   28.0917   35.6571 H     201  LVZ201      0.0194
   2103 H         -27.0431   28.7553   37.5111 H     201  LVZ201      0.0298
   2104 H         -27.5544   29.3228   35.3063 H     201  LVZ201      0.0232
   2105 H         -27.1115   27.8494   36.1346 H     201  LVZ201      0.0232
   2106 H         -26.0930   29.2634   36.2623 H     201  LVZ201      0.0232
   2107 H         -28.2715   29.0715   35.6006 H     201  LVZ201      0.0270
   2108 H         -27.2192   30.1373   35.6568 H     201  LVZ201      0.0270
   2109 H         -26.2972   29.7304   36.7574 H     201  LVZ201      0.0232
   2110 H         -26.0504   28.4818   35.5959 H     201  LVZ201      0.0232
   2111 H         -28.1846   28.2966   37.1683 H     201  LVZ201      0.0532
   2112 H         -27.1234   29.7299   37.2882 H     201  LVZ201      0.0532
   2113 H         -26.2300   28.6750   36.8540 H     201  LVZ201      0.0194
   2114 H         -27.6567   29.2540   36.0279 H     201  LVZ201      0.0194
   2115 H         -27.6567   29.1010   37.7685 H     201  LVZ201      0.0194
   2116 H         -27.6567   27.6701   36.7657 H     201  LVZ201      0.0194
   2117 H         -27.3438   27.8559   36.2659 H     201  LVZ201      0.0268
   2118 H         -28.5330   28.3590   35.5069 H     201  LVZ201      0.0268
   2119 H         -27.7879   29.8914   35.3611 H     201  LVZ201      0.0268
   2120 H         -26.4972   29.2364   35.9243 H     201  LVZ201      0.0268
   2121 H         -26.4677   29.9477   36.2779 H     201  LVZ201      0.0232
   2122 H         -26.6973   28.6392   37.4128 H     201  LVZ201      0.0232
   2123 H         -28.0804   29.4974   36.7774 H     201  LVZ201      0.0232
   2124 H         -28.3949   29.5106   37.2235 H     201  LVZ201      0.0304
   2125 H         -28.3883   28.7506   35.7955 H     201  LVZ201      0.0265
   2126 H         -27.8314   30.2326   36.0985 H     201  LVZ201      0.0265
   2127 H         -27.3047   28.4898   34.9183 H     201  LVZ201      0.0235
   2128 H         -27.2019   27.5776   36.4050 H     201  LVZ201      0.0235
   2129 H         -25.7686   28.3172   35.7329 H     201  LVZ201      0.0235
   2130 H         -27.8018   29.7242   36.6381 H     201  LVZ201      0.0194
   2131 H         -27.7763   28.2597   35.6855 H     201  LVZ201      0.0194
   2132 H         -26.3455   29.2568   35.7931 H     201  LVZ201      0.0194
   2133 H         -26.9414   29.3153   37.3592 H     201  LVZ201      0.0306
   2134 H         -27.6235   27.9000   36.0139 H     201  LVZ201      0.0569
   2135 H         -28.9590   38.7580   35.9610 H     203  SGN203      0.0000
   2136 H         -28.7250   39.1610   35.3930 H     203  SGN203      0.0000
   2137 H         -29.2560   38.5610   35.4340 H     203  SGN203      0.0000
   2138 H         -28.8840   38.7560   35.4390 H     203  SGN203      0.0000
   2139 H         -28.8800   39.2290   35.8870 H     203  SGN203      0.0000
   2140 H         -28.8670   39.3310   35.9730 H     203  SGN203      0.0000
   2141 H         -27.9630   39.0570   35.4820 H     203  SGN203      0.0000
   2142 H         -28.0750   39.1770   36.3360 H     203  SGN203      0.0000
   2143 H         -28.7530   39.2840   35.7120 H     203  SGN203      0.0000
   2144 H         -28.8220   39.2880   35.7900 H     203  SGN203      0.0000
   2145 H         -28.6670   38.4160   36.0830 H     203  SGN203      0.0000
   2146 H         -29.0020   39.4460   36.2940 H     203  SGN203      0.0000
   2147 H         -29.3430   38.6320   35.4560 H     203  SGN203      0.0000
   2148 H         -29.0570   38.9550   36.3630 H     203  SGN203      0.0000
   2149 H         -28.9680   39.0020   35.7660 H     203  SGN203      0.0000
   2150 H         -26.5200   27.9610   32.8890 H     201  LVZ201      0.0000
   2151 H         -26.7140   28.2470   32.8270 H     201  LVZ201      0.0000
   2152 H         -25.0010   28.1860   33.5150 H     201  LVZ201      0.0000
   2153 H         -28.2850   27.0700   31.9940 H     201  LVZ201      0.0000
   2154 H         -25.5030   26.5700   33.2500 H     201  LVZ201      0.0000
   2155 H         -25.9580   26.6770   31.7420 H     201  LVZ201      0.0000
   2156 H         -25.8210   26.7180   32.8090 H     201  LVZ201      0.0000
   2157 H         -30.6291   33.3770   35.8939 H     202  IDS202      0.0532
   2158 H         -31.0464   34.7677   34.8514 H     202  IDS202      0.0532
   2159 H         -31.1860   35.6587   35.9097 H     202  IDS202      0.1225
   2160 H         -30.8525   34.3398   36.7655 H     202  IDS202      0.0194
   2161 H         -32.3672   34.1891   35.9076 H     202  IDS202      0.0194
   2162 H         -31.2890   35.5167   35.5499 H     202  IDS202      0.0194
   2163 H         -30.2889   34.3041   36.9759 H     202  IDS202      0.0566
   2164 H         -29.4180   34.8040   35.8750 H     202  IDS202      0.0194
   2165 H         -30.8447   35.2187   36.7946 H     202  IDS202      0.0194
   2166 H         -30.8447   33.8002   35.7743 H     202  IDS202      0.0194
   2167 H         -30.8447   35.3931   35.0560 H     202  IDS202      0.0194
   2168 H         -29.3768   35.6208   35.9540 H     202  IDS202      0.0230
   2169 H         -31.0642   35.6144   35.5006 H     202  IDS202      0.0230
   2170 H         -30.1188   34.1508   35.3695 H     202  IDS202      0.0230
   2171 H         -30.1183   34.2277   34.7674 H     202  IDS202      0.0988
   2172 H         -30.1906   35.5695   35.9461 H     202  IDS202      0.0988
   2173 H         -29.3350   34.8060   36.4880 H     202  IDS202      0.0194
   2174 H         -30.7617   35.8090   36.3797 H     202  IDS202      0.0194
   2175 H         -30.7617   34.3983   37.4107 H     202  IDS202      0.0194
   2176 H         -30.7617   34.2107   35.6735 H     202  IDS202      0.0194
   2177 H         -29.5490   33.9213   35.7443 H     202  IDS202      0.1225
   2178 H         -31.4419   34.2703   36.1385 H     202  IDS202      0.0230
   2179 H         -29.8884   34.3023   35.3391 H     202  IDS202      0.0230
   2180 H         -30.8339   35.7659   35.4701 H     202  IDS202      0.0230
   2181 H         -30.6293   35.2832   34.9491 H     202  IDS202      0.0305
   2182 H         -29.8883   35.6720   36.4048 H     202  IDS202      0.0305
   2183 H         -30.7850   35.6602   37.0027 H     202  IDS202      0.0260
   2184 H         -29.9647   34.4302   37.1675 H     202  IDS202      0.0260
   2185 H         -31.8114   34.4643   35.7124 H     202  IDS202      0.0233
   2186 H         -31.4213   36.1382   36.0273 H     202  IDS202      0.0233
   2187 H         -31.0936   34.9219   37.2383 H     202  IDS202      0.0233
   2188 H         -31.5494   35.0142   36.1443 H     202  IDS202      0.0236
   2189 H         -30.1084   34.5970   37.0403 H     202  IDS202      0.0236
   2190 H         -30.7829   36.2037   37.1694 H     202  IDS202      0.0236
   2191 H         -29.3097   34.7932   35.4955 H     202  IDS202      0.0230
   2192 H         -29.2211   33.4989   36.3331 H     202  IDS202      0.0230
   2193 H         -30.6106   35.4822   35.7638 H     202  IDS202      0.0321
   2194 H         -30.4562   33.6585   37.0663 H     202  IDS202      0.0266
   2195 H         -30.7824   34.7811   35.4291 H     202  IDS202      0.0266
   2196 H         -30.0552   33.9029   37.3891 H     202  IDS202      0.0233
   2197 H         -31.5875   34.5309   36.8317 H     202  IDS202      0.0233
   2198 H         -30.3800   35.6176   37.4750 H     202  IDS202      0.0233
   2199 H         -30.2280   33.6680   37.2800 H     202  IDS202      0.0594
   2200 H         -30.3900   35.4333   37.6776 H     202  IDS202      0.0594
   2201 H         -26.7850   30.3080   33.9140 H     201  LVZ201      0.0000
   2202 H         -27.4020   30.4220   33.6630 H     201  LVZ201      0.0000
   2203 H         -27.1260   30.4000   33.8120 H     201  LVZ201      0.0000
   2204 H         -27.1310   30.2620   34.2540 H     201  LVZ201      0.0000
   2205 H         -26.8250   30.2790   33.8290 H     201  LVZ201      0.0000
   2206 H         -26.8060   30.5870   33.9040 H     201  LVZ201      0.0000
   2207 H         -26.6160   29.9110   33.9210 H     201  LVZ201      0.0000
   2208 H         -27.0980   30.3650   34.4940 H     201  LVZ201      0.0000
   2209 H         -26.6870   29.9330   34.4280 H     201  LVZ201      0.0000
   2210 H         -27.2310   30.5870   34.1500 H     201  LVZ201      0.0000
   2211 H         -27.3390   30.5860   33.7720 H     201  LVZ201      0.0000
   2212 H         -27.8260   30.6200   34.3300 H     201  LVZ201      0.0000
   2213 H         -27.4270   30.6430   34.3030 H     201  LVZ201      0.0000
   2214 H         -26.9440   29.9350   33.8050 H     201  LVZ201      0.0000
   2215 H         -27.1330   30.4710   34.2200 H     201  LVZ201      0.0000
   2216 H         -26.9230   30.8890   34.3850 H     201  LVZ201      0.0000
   2217 H         -27.3480   30.3160   34.3660 H     201  LVZ201      0.0000
   2218 H         -33.6331   39.9581   38.1415 H     203  SGN203      0.0592
   2219 H         -32.5898   38.5252   37.2068 H     203  SGN203      0.0592
   2220 H         -32.2958   39.8690   37.6654 H     203  SGN203      0.0227
   2221 H         -32.9822   39.7263   36.0649 H     203  SGN203      0.0227
   2222 H         -33.4694   38.6197   37.3264 H     203  SGN203      0.0227
   2223 H         -32.5330   39.2760   37.1610 H     203  SGN203      0.0194
   2224 H         -33.9597   39.3783   38.1646 H     203  SGN203      0.0194
   2225 H         -33.9597   38.3557   36.7478 H     203  SGN203      0.0194
   2226 H         -33.9597   40.0940   36.5706 H     203  SGN203      0.0194
   2227 H         -32.6671   38.7308   38.2824 H     203  SGN203      0.0307
   2228 H         -33.8202   38.8562   36.3743 H     203  SGN203      0.0274
   2229 H         -34.4978   39.8275   37.3370 H     203  SGN203      0.0274
   2230 H         -31.5450   39.1130   36.9780 H     203  SGN203      0.0194
   2231 H         -32.9717   39.7662   37.7468 H     203  SGN203      0.0194
   2232 H         -32.9717   38.1206   37.1593 H     203  SGN203      0.0194
   2233 H         -32.9717   39.4522   36.0279 H     203  SGN203      0.0194
   2234 H         -31.9916   40.3010   36.8404 H     203  SGN203      0.0303
   2235 H         -33.7722   38.9637   37.5768 H     203  SGN203      0.0233
   2236 H         -32.0763   39.0527   37.9880 H     203  SGN203      0.0233
   2237 H         -32.5604   38.7847   36.3307 H     203  SGN203      0.0233
   2238 H         -34.2278   39.4402   36.1500 H     203  SGN203      0.0230
   2239 H         -33.9528   38.7113   37.7140 H     203  SGN203      0.0230
   2240 H         -32.6764   38.7269   36.5208 H     203  SGN203      0.0230
   2241 H         -33.8143   38.9429   37.5382 H     203  SGN203      0.0265
   2242 H         -33.7264   40.2446   36.4016 H     203  SGN203      0.0265
   2243 H         -33.4367   40.7567   37.6935 H     203  SGN203      0.0268
   2244 H         -33.6508   40.0377   38.2897 H     203  SGN203      0.0227
   2245 H         -32.7876   39.9514   38.7950 H     203  SGN203      0.0230
   2246 H         -34.2614   40.6699   38.1912 H     203  SGN203      0.0230
   2247 H         -32.7118   41.2756   37.6576 H     203  SGN203      0.0230
   2248 H         -34.1309   38.4479   37.0140 H     203  SGN203      0.0529
   2249 H         -32.4028   37.9927   37.0558 H     203  SGN203      0.0529
   2250 H         -32.5520   39.0840   37.9060 H     203  SGN203      0.0194
   2251 H         -33.9787   40.0278   37.5496 H     203  SGN203      0.0194
   2252 H         -33.9787   38.9207   38.9015 H     203  SGN203      0.0194
   2253 H         -33.9787   38.3035   37.2669 H     203  SGN203      0.0194
   2254 H         -34.4728   38.5771   37.0874 H     203  SGN203      0.0291
   2255 H         -33.6989   40.4161   38.8072 H     203  SGN203      0.0194
   2256 H         -33.6676   39.0788   37.6831 H     203  SGN203      0.0194
   2257 H         -32.1818   39.8876   38.1203 H     203  SGN203      0.0194
   2258 H         -32.0095   39.9324   38.9782 H     203  SGN203      0.0556
   2259 H         -32.7196   39.7817   37.3888 H     203  SGN203      0.0556
   2260 H         -32.8936   38.4874   38.5497 H     203  SGN203      0.0556
   2261 H         -31.7595   37.3234   36.2039 H     203  SGN203      0.1026
   2262 H         -30.6240   38.4040   35.0090 H     203  SGN203      0.0194
   2263 H         -32.0507   39.2458   35.5649 H     203  SGN203      0.0194
   2264 H         -32.0507   37.5017   35.4601 H     203  SGN203      0.0194
   2265 H         -32.0507   38.4645   34.0020 H     203  SGN203      0.0194
   2266 H         -31.1000   38.1090   34.9540 H     203  SGN203      0.0194
   2267 H         -32.5267   37.1272   34.7221 H     203  SGN203      0.0194
   2268 H         -32.5267   38.8007   34.2197 H     203  SGN203      0.0194
   2269 H         -32.5267   38.3990   35.9202 H     203  SGN203      0.0194
   2270 H         -30.7252   37.7951   35.5242 H     203  SGN203      0.0336
   2271 H         -31.7391   37.8656   34.1809 H     203  SGN203      0.0336
   2272 H         -31.3422   37.2689   34.9558 H     203  SGN203      0.0271
   2273 H         -32.5187   38.4768   34.5756 H     203  SGN203      0.0271
   2274 H         -30.9587   38.6875   36.0043 H     203  SGN203      0.0227
   2275 H         -31.4040   37.4104   35.3981 H     203  SGN203      0.0227
   2276 H         -30.1184   38.7561   35.4048 H     203  SGN203      0.0194
   2277 H         -30.7220   37.1695   34.9909 H     203  SGN203      0.0194
   2278 H         -31.8262   38.5171   35.1235 H     203  SGN203      0.0194
   2279 H         -30.1447   38.1354   35.7134 H     203  SGN203      0.0532
   2280 H         -31.7641   38.8691   35.8985 H     203  SGN203      0.0532
   2281 H         -30.5057   38.0850   35.0964 H     203  SGN203      0.0194
   2282 H         -32.1056   37.6046   35.6088 H     203  SGN203      0.0194
   2283 H         -31.7544   39.2891   35.3053 H     203  SGN203      0.0194
   2284 H         -31.6710   38.7320   36.3407 H     203  SGN203      0.0234
   2285 H         -32.6952   38.8677   34.9316 H     203  SGN203      0.0234
   2286 H         -30.9700   39.1015   34.7834 H     203  SGN203      0.0234
   2287 H         -31.7717   39.4771   34.9698 H     203  SGN203      0.0307
   2288 H         -30.9756   38.7518   36.2074 H     203  SGN203      0.0307
   2289 H         -31.6258   39.7040   35.0374 H     203  SGN203      0.0227
   2290 H         -32.7194   38.6112   35.8517 H     203  SGN203      0.0227
   2291 H         -32.3534   38.3804   34.1589 H     203  SGN203      0.0227
   2292 H         -32.3397   38.3131   36.8396 H     203  SGN203      0.0233
   2293 H         -31.1742   38.0739   35.5600 H     203  SGN203      0.0233
   2294 H         -32.6769   38.9019   35.2294 H     203  SGN203      0.0233
   2295 H         -30.3610   37.6500   35.3380 H     203  SGN203      0.0194
   2296 H         -31.7877   37.5281   36.3394 H     203  SGN203      0.0194
   2297 H         -31.7877   36.8437   34.7317 H     203  SGN203      0.0194
   2298 H         -31.7877   38.5782   34.9429 H     203  SGN203      0.0194
   2299 H         -31.9657   39.2197   35.9024 H     203  SGN203      0.0296
   2300 H         -31.4471   37.0073   36.0733 H     203  SGN203      0.0232
   2301 H         -32.9358   37.2987   35.5569 H     203  SGN203      0.0232
   2302 H         -31.9413   37.0066   36.3268 H     203  SGN203      0.0232
   2303 H         -32.9003   38.4543   36.5205 H     203  SGN203      0.0232
   2304 H         -31.1688   38.5167   36.7463 H     203  SGN203      0.0232
   2305 H         -30.6400   38.1030   36.2050 H     203  SGN203      0.0194
   2306 H         -32.0667   38.9512   35.6588 H     203  SGN203      0.0194
   2307 H         -32.0667   38.1519   37.2126 H     203  SGN203      0.0194
   2308 H         -32.0667   37.2059   35.7436 H     203  SGN203      0.0194
   2309 H         -28.4200   25.8080   35.4160 H     201  LVZ201      0.0000
   2310 H         -27.3450   25.2330   34.0840 H     201  LVZ201      0.0000
   2311 H         -28.0580   25.4240   34.5540 H     201  LVZ201      0.0000
   2312 H         -27.4570   25.1030   34.6680 H     201  LVZ201      0.0000
   2313 H         -27.2760   25.5160   33.7750 H     201  LVZ201      0.0000
   2314 H         -29.2310   26.7510   34.1650 H     201  LVZ201      0.0000
   2315 H         -25.5540   25.4500   35.4890 H     201  LVZ201      0.0000
   2316 H         -24.3690   26.1320   34.0010 H     201  LVZ201      0.0000
   2317 H         -27.8700   26.4630   32.7600 H     201  LVZ201      0.0000
   2318 H         -26.8700   32.5470   35.6770 H     201  LVZ201      0.0000
   2319 H         -26.9660   32.3020   36.4570 H     201  LVZ201      0.0000
   2320 H         -26.4650   32.2060   36.2390 H     201  LVZ201      0.0000
   2321 H         -26.5020   32.5020   36.2480 H     201  LVZ201      0.0000
   2322 H         -26.4420   31.9460   36.0320 H     201  LVZ201      0.0000
   2323 H         -26.7260   32.3710   36.7360 H     201  LVZ201      0.0000
   2324 H         -26.3240   31.9430   36.7010 H     201  LVZ201      0.0000
   2325 H         -26.3760   32.1640   36.6640 H     201  LVZ201      0.0000
   2326 H         -27.0080   32.4120   36.1460 H     201  LVZ201      0.0000
   2327 H         -26.4220   32.4870   36.5010 H     201  LVZ201      0.0000
   2328 H         -27.1730   32.5690   36.5250 H     201  LVZ201      0.0000
   2329 H         -26.9390   32.6430   36.7710 H     201  LVZ201      0.0000
   2330 H         -26.7380   32.2280   36.5430 H     201  LVZ201      0.0000
   2331 H         -26.3940   32.4020   36.4710 H     201  LVZ201      0.0000
   2332 H         -26.5800   32.5700   36.8410 H     201  LVZ201      0.0000
   2333 H         -26.0870   32.3670   36.3140 H     201  LVZ201      0.0000
   2334 H         -29.9520   33.6843   35.8428 H     202  IDS202      0.2563
   2335 H         -29.9284   35.0142   35.3710 H     202  IDS202      0.2875
   2336 H         -28.1180   34.5060   36.1770 H     202  IDS202      0.2052
   2337 H         -29.4113   33.9361   36.8923 H     202  IDS202      0.2052
   2338 H         -28.0802   33.5157   35.9500 H     202  IDS202      0.2875
   2339 H         -30.0366   34.8746   36.9050 H     202  IDS202      0.2562
   2340 H         -28.7190   34.9760   36.3900 H     202  IDS202      0.2052
   2341 H         -30.0123   34.8303   35.4872 H     202  IDS202      0.2052
   2342 H         -27.8342   34.6180   36.0230 H     202  IDS202      0.2562
   2343 H         -28.2746   34.8988   37.1281 H     202  IDS202      0.2531
   2344 H         -28.2360   35.1621   37.3735 H     202  IDS202      0.2563
   2345 H         -24.1180   30.8770   33.2760 H     201  LVZ201      0.2052
   2346 H         -25.4113   31.7323   32.9523 H     201  LVZ201      0.2052
   2347 H         -24.2402   31.6005   33.3453 H     201  LVZ201      0.2563
   2348 H         -25.4720   29.9513   33.1005 H     201  LVZ201      0.2531
   2349 H         -26.7251   30.8932   33.2068 H     201  LVZ201      0.2562
   2350 H         -24.6045   31.0206   32.7249 H     201  LVZ201      0.2531
   2351 H         -24.9671   31.8016   32.4647 H     201  LVZ201      0.2563
   2352 H         -23.9097   31.2377   33.3503 H     201  LVZ201      0.2528
   2353 H         -27.2090   29.5600   37.0210 H     201  LVZ201      0.0194
   2354 H         -28.6357   28.8045   37.6895 H     201  LVZ201      0.0194
   2355 H         -28.6357   29.3588   36.0325 H     201  LVZ201      0.0194
   2356 H         -28.6357   30.5167   37.3410 H     201  LVZ201      0.0194
   2357 H         -27.1170   30.0350   36.8550 H     201  LVZ201      0.0194
   2358 H         -28.5437   30.5073   35.9636 H     201  LVZ201      0.0194
   2359 H         -28.5437   30.5709   37.7097 H     201  LVZ201      0.0194
   2360 H         -28.5437   29.0269   36.8917 H     201  LVZ201      0.0194
   2361 H         -29.3102   29.9107   37.6304 H     201  LVZ201      0.0230
   2362 H         -27.7229   30.6297   37.7598 H     201  LVZ201      0.0230
   2363 H         -27.9267   28.9120   38.0068 H     201  LVZ201      0.0230
   2364 H         -28.6001   28.7926   36.6211 H     201  LVZ201      0.0260
   2365 H         -28.5219   30.2993   36.2157 H     201  LVZ201      0.0260
   2366 H         -28.6952   29.7717   36.0947 H     201  LVZ201      0.0268
   2367 H         -27.7486   30.8637   36.8797 H     201  LVZ201      0.0268
   2368 H         -27.4173   30.6722   36.7537 H     201  LVZ201      0.0274
   2369 H         -27.1539   29.2273   36.3291 H     201  LVZ201      0.0274
   2370 H         -29.0835   29.0183   37.4706 H     201  LVZ201      0.0230
   2371 H         -28.6882   30.5603   38.1911 H     201  LVZ201      0.0230
   2372 H         -27.6180   29.1957   38.4055 H     201  LVZ201      0.0230
   2373 H         -27.2250   29.6420   37.5160 H     201  LVZ201      0.0194
   2374 H         -28.6517   29.9237   38.4847 H     201  LVZ201      0.0194
   2375 H         -28.6517   28.6623   37.2756 H     201  LVZ201      0.0194
   2376 H         -28.6517   30.3401   36.7877 H     201  LVZ201      0.0194
   2377 H         -27.2070   29.7170   37.3020 H     201  LVZ201      0.0194
   2378 H         -28.6337   30.3479   36.5148 H     201  LVZ201      0.0194
   2379 H         -28.6337   30.0832   38.2420 H     201  LVZ201      0.0194
   2380 H         -28.6337   28.7198   37.1492 H     201  LVZ201      0.0194
   2381 H         -29.1335   30.4580   36.3943 H     201  LVZ201      0.1225
   2382 H         -28.5444   30.2474   38.3901 H     201  LVZ201      0.0274
   2383 H         -27.7502   31.0104   37.3284 H     201  LVZ201      0.0274
   2384 H         -29.0897   29.0404   37.4348 H     201  LVZ201      0.0230
   2385 H         -29.3388   30.7353   37.0907 H     201  LVZ201      0.0230
   2386 H         -28.1787   30.2515   38.3045 H     201  LVZ201      0.0230
   2387 H         -29.3436   29.8171   37.4975 H     201  LVZ201      0.0230
   2388 H         -28.1015   31.0459   37.5177 H     201  LVZ201      0.0230
   2389 H         -28.0360   29.7188   38.6524 H     201  LVZ201      0.0230
   2390 H         -27.6162   28.0948   37.0401 H     201  LVZ201      0.0230
   2391 H         -28.7846   29.3879   37.1650 H     201  LVZ201      0.0230
   2392 H         -27.0967   29.7011   37.4904 H     201  LVZ201      0.0230
   2393 H         -27.5665   29.0370   37.8507 H     201  LVZ201      0.1225
   2394 H         -27.8405   28.9713   38.0119 H     201  LVZ201      0.0230
   2395 H         -27.5542   30.6389   37.5756 H     201  LVZ201      0.0230
   2396 H         -27.1238   29.3593   36.4662 H     201  LVZ201      0.0230
   2397 H         -27.8710   29.4058   36.4162 H     201  LVZ201      0.0260
   2398 H         -27.1285   29.1659   38.2693 H     201  LVZ201      0.0306
   2399 H         -22.9330   30.3730   31.1230 H     201  LVZ201      0.2052
   2400 H         -24.2263   30.8171   30.3235 H     201  LVZ201      0.2052
   2401 H         -24.0812   30.2228   31.4883 H     201  LVZ201      0.2563
   2402 H         -21.8458   29.1416   33.0283 H     201  LVZ201      0.2563
   2403 H         -23.0514   29.0368   33.6717 H     201  LVZ201      0.2563
   2404 H         -22.8896   30.0915   31.8583 H     201  LVZ201      0.2562
   2405 H         -22.1020   29.6998   32.6940 H     201  LVZ201      0.2544
   2406 H         -23.4130   29.8860   32.2890 H     201  LVZ201      0.2052
   2407 H         -24.7063   29.0133   32.5623 H     201  LVZ201      0.2052
   2408 H         -31.5410   35.5390   34.7080 H     202  IDS202      0.0000
   2409 H         -31.4220   35.9500   34.6460 H     202  IDS202      0.0000
   2410 H         -31.8960   35.6550   34.4290 H     202  IDS202      0.0000
   2411 H         -30.8790   35.9010   34.3540 H     202  IDS202      0.0000
   2412 H         -30.8010   36.1010   34.3390 H     202  IDS202      0.0000
   2413 H         -31.1680   35.8960   35.2650 H     202  IDS202      0.0000
   2414 H         -30.6330   35.6460   34.2970 H     202  IDS202      0.0000
   2415 H         -30.7620   36.0040   34.3170 H     202  IDS202      0.0000
   2416 H         -30.9780   35.9140   35.0210 H     202  IDS202      0.0000
   2417 H         -31.5310   36.2050   34.6560 H     202  IDS202      0.0000
   2418 H         -31.6520   36.1690   35.6410 H     202  IDS202      0.0000
   2419 H         -30.7320   35.0510   34.6100 H     202  IDS202      0.0000
   2420 H         -31.1900   35.7790   35.1030 H     202  IDS202      0.0000
   2421 H         -31.2810   35.0660   35.0910 H     202  IDS202      0.0000
   2422 H         -31.5390   35.5900   35.9080 H     202  IDS202      0.0000
   2423 H         -36.1768   37.5112   35.8609 H     203  SGN203      0.2872
   2424 H         -33.9133   36.1870   36.4036 H     203  SGN203      0.2872
   2425 H         -35.2743   36.6081   36.9301 H     203  SGN203      0.2562
   2426 H         -36.0283   37.7335   34.8952 H     203  SGN203      0.2562
   2427 H         -35.0502   36.3893   35.5148 H     203  SGN203      0.2545
   2428 H         -34.7160   35.9020   36.2800 H     203  SGN203      0.2052
   2429 H         -36.0093   34.9910   36.1998 H     203  SGN203      0.2052
   2430 H         -27.2310   27.7810   38.9270 H     201  LVZ201      0.0980
   2431 H         -29.0443   28.7766   39.7350 H     201  LVZ201      0.0980
   2432 H         -28.1582   29.7377   39.2042 H     201  LVZ201      0.1148
   2433 H         -27.4820   27.9000   38.8570 H     201  LVZ201      0.0980
   2434 H         -29.2953   29.1803   38.9270 H     201  LVZ201      0.0980
   2435 H         -27.5811   28.0847   38.0580 H     201  LVZ201      0.1148
   2436 H         -30.1945   28.2130   40.3816 H     201  LVZ201      0.1148
   2437 H         -27.3370   27.8960   39.1980 H     201  LVZ201      0.0980
   2438 H         -29.1503   28.0133   40.4748 H     201  LVZ201      0.0980
   2439 H         -27.1332   28.2529   39.4223 H     201  LVZ201      0.1148
   2440 H         -28.4588   29.4023   40.4014 H     201  LVZ201      0.1148
   2441 H         -28.9436   26.6262   38.3096 H     201  LVZ201      0.1148
   2442 H         -33.5131   38.4185   36.3967 H     203  SGN203      0.0194
   2443 H         -34.4261   38.2110   37.8719 H     203  SGN203      0.0194
   2444 H         -34.1619   36.8494   36.8091 H     203  SGN203      0.0194
   2445 H         -34.6645   38.6771   36.2060 H     203  SGN203      0.0230
   2446 H         -32.9560   38.9612   35.9750 H     203  SGN203      0.0230
   2447 H         -33.5418   38.3552   37.5056 H     203  SGN203      0.0230
   2448 H         -33.2598   37.8919   36.6018 H     203  SGN203      0.1225
   2449 H         -33.9211   38.8683   37.4027 H     203  SGN203      0.0252
   2450 H         -32.4357   38.0930   36.6192 H     203  SGN203      0.0252
   2451 H         -34.3005   37.5742   37.6615 H     203  SGN203      0.0265
   2452 H         -34.5349   37.3917   36.4482 H     203  SGN203      0.0554
   2453 H         -34.0153   38.5989   35.7507 H     203  SGN203      0.0554
   2454 H         -32.4066   38.6398   35.6909 H     203  SGN203      0.0232
   2455 H         -33.5860   37.3750   35.4407 H     203  SGN203      0.0232
   2456 H         -32.2717   37.1338   36.5666 H     203  SGN203      0.0232
   2457 H         -32.8098   38.0465   35.6668 H     203  SGN203      0.0306
   2458 H         -33.3789   37.4233   37.1967 H     203  SGN203      0.0306
   2459 H         -32.6023   38.9869   37.1248 H     203  SGN203      0.0306
   2460 H         -32.5535   38.7856   36.8641 H     203  SGN203      0.0298
   2461 H         -33.5883   37.6640   35.2195 H     203  SGN203      0.0265
   2462 H         -34.1960   36.9522   36.4316 H     203  SGN203      0.0265
   2463 H         -33.0555   38.8004   36.0450 H     203  SGN203      0.0230
   2464 H         -33.6047   39.0034   37.6913 H     203  SGN203      0.0230
   2465 H         -34.7302   38.5090   36.4495 H     203  SGN203      0.0230
   2466 H         -34.2520   38.7528   35.4474 H     203  SGN203      0.0306
   2467 H         -33.9942   39.6685   36.9130 H     203  SGN203      0.0306
   2468 H         -34.7708   38.1049   36.9850 H     203  SGN203      0.0306
   2469 H         -32.7585   39.1017   37.8020 H     203  SGN203      0.0194
   2470 H         -34.1809   38.0957   37.9364 H     203  SGN203      0.0194
   2471 H         -34.3334   39.8356   37.9872 H     203  SGN203      0.0194
   2472 H         -33.7918   37.8254   35.9624 H     203  SGN203      0.0194
   2473 H         -34.3770   36.7295   37.1911 H     203  SGN203      0.0194
   2474 H         -33.3628   36.1327   35.8994 H     203  SGN203      0.0194
   2475 H         -32.7450   37.7170   37.1340 H     203  SGN203      0.0194
   2476 H         -34.1717   36.9505   37.7898 H     203  SGN203      0.0194
   2477 H         -34.1717   37.5323   36.1422 H     203  SGN203      0.0194
   2478 H         -34.1717   38.6682   37.4699 H     203  SGN203      0.0194
   2479 H         -34.0883   36.9195   37.8909 H     203  SGN203      0.0194
   2480 H         -33.4967   36.8369   36.2489 H     203  SGN203      0.0194
   2481 H         -34.9147   37.7882   36.6198 H     203  SGN203      0.0194
   2482 H         -32.6658   38.7026   38.1333 H     203  SGN203      0.0988
   2483 H         -34.0045   37.9091   37.2539 H     203  SGN203      0.0988
   2484 H         -34.2616   38.3293   38.4418 H     203  SGN203      0.0529
   2485 H         -25.5910   30.0870   35.0320 H     201  LVZ201      0.2052
   2486 H         -26.8843   30.9324   34.6832 H     201  LVZ201      0.2052
   2487 H         -25.4140   29.9940   35.8050 H     201  LVZ201      0.2052
   2488 H         -26.7073   30.2206   36.6910 H     201  LVZ201      0.2052
   2489 H         -25.2960   29.8840   35.5290 H     201  LVZ201      0.2052
   2490 H         -26.5893   29.3627   36.2804 H     201  LVZ201      0.2052
   2491 H         -26.2106   29.1849   35.8861 H     201  LVZ201      0.2530
   2492 H         -25.7178   29.2719   36.4471 H     201  LVZ201      0.2563
   2493 H         -25.2970   29.4800   36.2040 H     201  LVZ201      0.2052
   2494 H         -26.5903   28.9014   35.4958 H     201  LVZ201      0.2052
   2495 H         -27.2822   29.7231   36.1325 H     201  LVZ201      0.2562
   2496 H         -25.3106   29.9822   35.4456 H     201  LVZ201      0.2563
   2497 H         -27.5163   29.2521   35.5622 H     201  LVZ201      0.2562
   2498 H         -25.1267   29.5954   35.2330 H     201  LVZ201      0.2562
   2499 H         -25.4300   29.1426   35.7638 H     201  LVZ201      0.2562
   2500 H         -28.7430   30.0770   35.2190 H     201  LVZ201      0.0000
   2501 H         -29.2840   30.6500   35.6540 H     201  LVZ201      0.0000
   2502 H         -29.1780   30.1790   36.0490 H     201  LVZ201      0.0000
   2503 H         -28.9670   30.1640   35.7920 H     201  LVZ201      0.0000
   2504 H         -28.9580   30.5050   35.5570 H     201  LVZ201      0.0000
   2505 H         -28.9690   30.9830   35.5720 H     201  LVZ201      0.0000
   2506 H         -28.6330   29.9350   35.6900 H     201  LVZ201      0.0000
   2507 H         -29.0370   30.3410   36.2250 H     201  LVZ201      0.0000
   2508 H         -28.7310   30.3370   35.8400 H     201  LVZ201      0.0000
   2509 H         -29.3340   30.5930   35.4440 H     201  LVZ201      0.0000
   2510 H         -29.5210   30.6570   35.8670 H     201  LVZ201      0.0000
   2511 H         -28.7140   29.8200   35.4700 H     201  LVZ201      0.0000
   2512 H         -29.0900   30.3180   36.0720 H     201  LVZ201      0.0000
   2513 H         -28.9430   30.8900   36.3770 H     201  LVZ201      0.0000
   2514 H         -36.7670   37.0650   36.7060 H     203  SGN203      0.2052
   2515 H         -38.0603   37.9774   36.6439 H     203  SGN203      0.2052
   2516 H         -37.3241   35.2389   38.0423 H     203  SGN203      0.2562
   2517 H         -37.0250   37.8320   35.9800 H     203  SGN203      0.2052
   2518 H         -38.3183   37.0733   36.4906 H     203  SGN203      0.2052
   2519 H         -38.9603   36.9314   36.2227 H     203  SGN203      0.2543
   2520 H         -38.6238   35.7137   36.1870 H     203  SGN203      0.2562
   2521 H         -37.8556   36.5664   34.1243 H     203  SGN203      0.2562
   2522 H         -35.3750   34.3030   37.9570 H     203  SGN203      0.2052
   2523 H         -36.6683   33.4176   37.7279 H     203  SGN203      0.2052
   2524 H         -26.8850   30.5680   37.5190 H     201  LVZ201      0.0000
   2525 H         -26.8480   30.2760   37.8550 H     201  LVZ201      0.0000
   2526 H         -27.0960   30.3820   38.1590 H     201  LVZ201      0.0000
   2527 H         -27.0980   30.2220   37.8590 H     201  LVZ201      0.0000
   2528 H         -27.0330   30.4100   37.8220 H     201  LVZ201      0.0000
   2529 H         -26.5100   30.2810   37.8240 H     201  LVZ201      0.0000
   2530 H         -26.7910   29.9360   37.9260 H     201  LVZ201      0.0000
   2531 H         -27.3360   30.4080   37.7390 H     201  LVZ201      0.0000
   2532 H         -27.2950   30.4070   38.0890 H     201  LVZ201      0.0000
   2533 H         -26.4990   29.5670   37.6420 H     201  LVZ201      0.0000
   2534 H         -26.8970   29.9380   38.0840 H     201  LVZ201      0.0000
   2535 H         -26.6360   30.1840   37.9780 H     201  LVZ201      0.0000
   2536 H         -32.6015   39.1251   38.3387 H     203  SGN203      0.0194
   2537 H         -32.5383   39.8040   36.9855 H     203  SGN203      0.0194
   2538 H         -31.4022   39.1648   36.2105 H     203  SGN203      0.0265
   2539 H         -32.1543   40.6200   36.6632 H     203  SGN203      0.0265
   2540 H         -31.8321   38.7821   36.2846 H     203  SGN203      0.0232
   2541 H         -31.3656   40.2558   37.0993 H     203  SGN203      0.0232
   2542 H         -33.0564   39.8963   36.8437 H     203  SGN203      0.0232
   2543 H         -30.8594   39.2593   36.5579 H     203  SGN203      0.0230
   2544 H         -31.6543   39.4531   38.1018 H     203  SGN203      0.0230
   2545 H         -31.5658   40.7980   36.9899 H     203  SGN203      0.0230
   2546 H         -31.2332   38.9693   37.9945 H     203  SGN203      0.0303
   2547 H         -33.0570   40.0143   37.6350 H     203  SGN203      0.0268
   2548 H         -31.8655   40.9342   37.2728 H     203  SGN203      0.0268
   2549 H         -30.0671   39.5173   36.9396 H     203  SGN203      0.0232
   2550 H         -31.4937   38.6121   37.3855 H     203  SGN203      0.0232
   2551 H         -31.4807   40.3528   37.5370 H     203  SGN203      0.0232
   2552 H         -30.8192   38.9880   37.6287 H     203  SGN203      0.0230
   2553 H         -31.5459   40.5095   38.0868 H     203  SGN203      0.0230
   2554 H         -30.6199   40.3932   36.6096 H     203  SGN203      0.0230
   2555 H         -30.2610   39.6710   37.0670 H     203  SGN203      0.0194
   2556 H         -31.6877   39.0624   36.2624 H     203  SGN203      0.0194
   2557 H         -31.6877   40.6721   36.9422 H     203  SGN203      0.0194
   2558 H         -31.6877   39.2785   37.9963 H     203  SGN203      0.0194
   2559 H         -32.3589   38.6049   37.0199 H     203  SGN203      0.0263
   2560 H         -32.3915   39.6370   35.8887 H     203  SGN203      0.0263
   2561 H         -30.7300   40.0720   37.2100 H     203  SGN203      0.0194
   2562 H         -32.1567   39.9233   38.2078 H     203  SGN203      0.0194
   2563 H         -32.1567   39.2823   36.5823 H     203  SGN203      0.0194
   2564 H         -32.1567   41.0105   36.8399 H     203  SGN203      0.0194
   2565 H         -30.7260   40.0660   37.2020 H     203  SGN203      0.0194
   2566 H         -32.1527   39.7252   36.2525 H     203  SGN203      0.0194
   2567 H         -32.1527   41.0587   37.3816 H     203  SGN203      0.0194
   2568 H         -32.1527   39.4141   37.9719 H     203  SGN203      0.0194
   2569 H         -30.9770   40.0880   37.1540 H     203  SGN203      0.0194
   2570 H         -32.4037   40.7587   37.9076 H     203  SGN203      0.0194
   2571 H         -32.4037   39.1001   37.3581 H     203  SGN203      0.0194
   2572 H         -32.4037   40.4052   36.1964 H     203  SGN203      0.0194
   2573 H         -30.6636   40.3548   37.8026 H     203  SGN203      0.0521
   2574 H         -32.1327   39.7438   37.0804 H     203  SGN203      0.0521
   2575 H         -32.1762   40.4677   38.6701 H     203  SGN203      0.0521
   2576 H         -31.8019   37.6737   37.1923 H     203  SGN203      0.0194
   2577 H         -31.4820   39.3848   37.0413 H     203  SGN203      0.0194
   2578 H         -32.8470   38.8308   37.9810 H     203  SGN203      0.0194
   2579 H         -33.0019   39.4309   38.4758 H     203  SGN203      0.0232
   2580 H         -32.5973   40.3451   37.0427 H     203  SGN203      0.0232
   2581 H         -31.3773   40.0350   38.2546 H     203  SGN203      0.0232
   2582 H         -32.2791   38.2337   37.9071 H     203  SGN203      0.0298
   2583 H         -30.9199   40.1685   37.3696 H     203  SGN203      0.0899
   2584 H         -32.4168   39.3705   37.3703 H     203  SGN203      0.0899
   2585 H         -30.8499   40.8687   38.1893 H     203  SGN203      0.0194
   2586 H         -32.3762   40.0993   38.5518 H     203  SGN203      0.0194
   2587 H         -31.8265   40.2133   36.8971 H     203  SGN203      0.0194
   2588 H         -26.6960   25.9175   34.7551 H     201  LVZ201      0.0230
   2589 H         -27.6350   27.2537   34.6440 H     201  LVZ201      0.0230
   2590 H         -26.3140   27.0950   34.7440 H     201  LVZ201      0.0194
   2591 H         -27.7407   27.3185   35.7277 H     201  LVZ201      0.0194
   2592 H         -27.7407   26.1313   34.4457 H     201  LVZ201      0.0194
   2593 H         -27.7407   27.8352   34.0586 H     201  LVZ201      0.0194
   2594 H         -26.6159   26.3377   35.2164 H     201  LVZ201      0.0230
   2595 H         -27.0106   26.5797   33.7989 H     201  LVZ201      0.0230
   2596 H         -26.2450   26.8500   35.3450 H     201  LVZ201      0.0194
   2597 H         -27.6717   26.5371   34.3860 H     201  LVZ201      0.0194
   2598 H         -27.6717   27.8370   35.5535 H     201  LVZ201      0.0194
   2599 H         -27.6717   26.1759   36.0955 H     201  LVZ201      0.0194
   2600 H         -27.0272   26.0005   35.3613 H     201  LVZ201      0.0254
   2601 H         -26.2127   27.0883   34.2629 H     201  LVZ201      0.0254
   2602 H         -27.8318   26.5368   33.9059 H     201  LVZ201      0.0254
   2603 H         -26.6760   27.8687   35.1660 H     201  LVZ201      0.0230
   2604 H         -26.9306   26.3112   34.9060 H     201  LVZ201      0.0230
   2605 H         -27.3886   26.4105   34.1249 H     201  LVZ201      0.0227
   2606 H         -28.2148   26.4068   35.3686 H     201  LVZ201      0.0263
   2607 H         -27.4197   27.8444   35.7566 H     201  LVZ201      0.0263
   2608 H         -27.0094   27.0302   36.3347 H     201  LVZ201      0.0227
   2609 H         -28.1296   26.0704   35.3982 H     201  LVZ201      0.0227
   2610 H         -27.7110   27.6837   34.8739 H     201  LVZ201      0.0227
   2611 H         -27.8203   28.2039   33.8990 H     201  LVZ201      0.0230
   2612 H         -27.8970   26.5622   34.4926 H     201  LVZ201      0.0230
   2613 H         -29.1825   27.6862   34.8632 H     201  LVZ201      0.0230
   2614 H         -27.5925   26.0649   34.2861 H     201  LVZ201      0.0287
   2615 H         -27.5515   27.5002   33.6201 H     201  LVZ201      0.0287
   2616 H         -26.9437   27.2237   35.9108 H     201  LVZ201      0.0590
   2617 H         -27.7176   26.6389   35.8397 H     201  LVZ201      0.0231
   2618 H         -28.9030   26.9897   34.6048 H     201  LVZ201      0.0231
   2619 H         -27.8350   28.2501   35.1738 H     201  LVZ201      0.0231
   2620 H         -28.1249   28.3287   34.3630 H     201  LVZ201      0.0529
   2621 H         -29.3015   27.5993   35.4938 H     201  LVZ201      0.0529
   2622 H         -26.1380   26.1727   33.3499 H     201  LVZ201      0.0265
   2623 H         -27.5974   26.5776   33.8920 H     201  LVZ201      0.0265
   2624 H         -26.2430   26.9810   34.6710 H     201  LVZ201      0.0194
   2625 H         -27.6697   26.5126   33.7775 H     201  LVZ201      0.0194
   2626 H         -27.6697   27.9890   34.7121 H     201  LVZ201      0.0194
   2627 H         -27.6697   26.4414   35.5234 H     201  LVZ201      0.0194
   2628 H         -27.4205   26.9563   34.4406 H     201  LVZ201      0.0230
   2629 H         -27.0965   28.6091   33.9756 H     201  LVZ201      0.0230
   2630 H         -25.9007   27.7031   34.8714 H     201  LVZ201      0.0230
   2631 H         -28.5437   26.8184   34.0513 H     201  LVZ201      0.0263
   2632 H         -28.4023   28.2586   34.4852 H     201  LVZ201      0.0263
   2633 H         -27.2356   27.0382   34.3852 H     201  LVZ201      0.0529
   2634 H         -30.3829   34.0531   30.6344 H     202  IDS202      0.2440
   2635 H         -27.9950   33.0560   30.4870 H     202  IDS202      0.2052
   2636 H         -29.2883   32.4632   29.7906 H     202  IDS202      0.2052
   2637 H         -29.3425   33.3941   30.4901 H     202  IDS202      0.2562
   2638 H         -25.6766   33.3137   31.7789 H     202  IDS202      0.2563
   2639 H         -27.6506   33.0294   30.1916 H     202  IDS202      0.2562
   2640 H         -28.5474   33.0712   32.6723 H     202  IDS202      0.2562
   2641 H         -30.3016   33.3503   31.0203 H     202  IDS202      0.2544
   2642 H         -28.6480   34.2677   31.4118 H     202  IDS202      0.2470
   2643 H         -27.8820   32.9350   32.2790 H     202  IDS202      0.2052
   2644 H         -29.1753   33.7471   32.6996 H     202  IDS202      0.2052
   2645 H         -27.4910   35.7570   30.7890 H     202  IDS202      0.2052
   2646 H         -28.7843   36.4053   30.1439 H     202  IDS202      0.2052
   2647 H         -28.0364   33.9901   32.3853 H     202  IDS202      0.2562
   2648 H         -35.3400   33.9810   38.0320 H     203  SGN203      0.2052
   2649 H         -36.6333   33.3787   37.3438 H     203  SGN203      0.2052
   2650 H         -38.1481   34.8655   38.7325 H     203  SGN203      0.2563
   2651 H         -34.7490   34.4865   37.3237 H     203  SGN203      0.2562
   2652 H         -37.2040   35.2570   35.7738 H     203  SGN203      0.2543
   2653 H         -35.8188   34.3479   36.0230 H     203  SGN203      0.2544
   2654 H         -37.9219   33.5204   37.3379 H     203  SGN203      0.2562
   2655 H         -36.8100   34.4778   34.4559 H     203  SGN203      0.2562
   2656 H         -28.4089   32.9362   34.0837 H     202  IDS202      0.0307
   2657 H         -28.7151   34.5071   33.6891 H     202  IDS202      0.0307
   2658 H         -27.7550   34.1430   34.3450 H     202  IDS202      0.0194
   2659 H         -29.1817   33.6606   33.4590 H     202  IDS202      0.0194
   2660 H         -29.1817   35.1515   34.3702 H     202  IDS202      0.0194
   2661 H         -29.1817   33.6169   35.2058 H     202  IDS202      0.0194
   2662 H         -29.0816   33.0041   35.5851 H     202  IDS202      0.0273
   2663 H         -30.0867   33.6804   34.4416 H     202  IDS202      0.0273
   2664 H         -29.1720   33.1431   35.0722 H     202  IDS202      0.0230
   2665 H         -27.7458   33.6465   34.1970 H     202  IDS202      0.0230
   2666 H         -29.0889   34.7481   34.3864 H     202  IDS202      0.0230
   2667 H         -27.4836   34.4802   34.3580 H     202  IDS202      0.0263
   2668 H         -28.3707   33.0997   35.0674 H     202  IDS202      0.0263
   2669 H         -28.7811   35.1032   34.4132 H     202  IDS202      0.0230
   2670 H         -27.5346   34.1607   34.0946 H     202  IDS202      0.0230
   2671 H         -26.9760   33.6690   34.4470 H     202  IDS202      0.0194
   2672 H         -28.4027   33.9349   33.4739 H     202  IDS202      0.0194
   2673 H         -28.4027   34.3788   35.1639 H     202  IDS202      0.0194
   2674 H         -28.4027   32.6933   34.7032 H     202  IDS202      0.0194
   2675 H         -29.2338   33.5518   34.6307 H     202  IDS202      0.1225
   2676 H         -27.5846   34.3592   35.8574 H     202  IDS202      0.0532
   2677 H         -27.5348   33.0048   34.6920 H     202  IDS202      0.0532
   2678 H         -27.3832   33.5302   35.8007 H     202  IDS202      0.0988
   2679 H         -28.6670   35.3588   34.6513 H     202  IDS202      0.0230
   2680 H         -29.5148   34.0194   35.3862 H     202  IDS202      0.0230
   2681 H         -28.7722   33.8276   33.8162 H     202  IDS202      0.0230
   2682 H         -27.5674   34.5971   36.1713 H     202  IDS202      0.0270
   2683 H         -29.5400   35.2276   34.7591 H     202  IDS202      0.0381
   2684 H         -27.0810   33.4400   34.6530 H     202  IDS202      0.0194
   2685 H         -28.5077   34.3089   35.1656 H     202  IDS202      0.0194
   2686 H         -28.5077   32.5617   35.1492 H     202  IDS202      0.0194
   2687 H         -28.5077   33.4494   33.6442 H     202  IDS202      0.0194
   2688 H         -27.7170   33.4212   35.7120 H     202  IDS202      0.0260
   2689 H         -28.9520   34.3899   36.0516 H     202  IDS202      0.0260
   2690 H         -28.7006   34.8347   35.3695 H     202  IDS202      0.0566
   2691 H         -28.1885   33.4046   34.8035 H     202  IDS202      0.0381
   2692 H         -27.5152   34.5322   35.9773 H     202  IDS202      0.1225
   2693 H         -27.5240   35.0040   32.3460 H     202  IDS202      0.2052
   2694 H         -28.8173   35.9035   32.5110 H     202  IDS202      0.2052
   2695 H         -27.8005   34.3300   32.4422 H     202  IDS202      0.2562
   2696 H         -27.2390   34.9370   32.5490 H     202  IDS202      0.2052
   2697 H         -28.5323   34.2036   33.0954 H     202  IDS202      0.2052
   2698 H         -26.9986   36.0320   33.6326 H     202  IDS202      0.2562
   2699 H         -26.5560   34.5270   32.3560 H     202  IDS202      0.2052
   2700 H         -27.8493   35.3992   32.0809 H     202  IDS202      0.2052
   2701 H         -25.9870   35.5280   34.0050 H     202  IDS202      0.2052
   2702 H         -27.2803   36.3456   33.5953 H     202  IDS202      0.2052
   2703 H         -27.2570   35.2400   32.5220 H     202  IDS202      0.2052
   2704 H         -28.5503   34.3312   32.4201 H     202  IDS202      0.2052
   2705 H         -27.5238   33.7850   32.2554 H     202  IDS202      0.2562
   2706 H         -27.3930   35.0820   32.6710 H     202  IDS202      0.2052
   2707 H         -28.6863   35.7411   33.3050 H     202  IDS202      0.2052
   2708 H         -28.9460   27.8990   36.9600 H     201  LVZ201      0.0000
   2709 H         -29.1000   28.5540   37.2580 H     201  LVZ201      0.0000
   2710 H         -28.7530   28.0190   37.6080 H     201  LVZ201      0.0000
   2711 H         -28.9700   28.1370   37.6410 H     201  LVZ201      0.0000
   2712 H         -29.0080   28.1910   36.9140 H     201  LVZ201      0.0000
   2713 H         -29.2250   28.7610   37.0600 H     201  LVZ201      0.0000
   2714 H         -29.1530   28.1570   37.3730 H     201  LVZ201      0.0000
   2715 H         -29.4270   28.4440   37.6860 H     201  LVZ201      0.0000
   2716 H         -29.1840   28.2010   37.1660 H     201  LVZ201      0.0000
   2717 H         -29.2140   28.3600   37.5220 H     201  LVZ201      0.0000
   2718 H         -28.4530   27.4740   37.1430 H     201  LVZ201      0.0000
   2719 H         -28.5870   27.9120   37.1740 H     201  LVZ201      0.0000
   2720 H         -28.8290   28.2390   37.1810 H     201  LVZ201      0.0000
   2721 H         -29.9013   33.2398   34.2004 H     201  LVZ201      0.2563
   2722 H         -28.9506   32.1743   33.8549 H     201  LVZ201      0.2563
   2723 H         -28.6954   32.2913   33.5036 H     201  LVZ201      0.2563
   2724 H         -29.1777   32.6938   36.1408 H     201  LVZ201      0.2563
   2725 H         -28.3599   32.4309   36.1043 H     201  LVZ201      0.2563
   2726 H         -30.0516   33.5362   34.9546 H     201  LVZ201      0.2562
   2727 H         -27.7510   32.0738   34.0466 H     201  LVZ201      0.2563
   2728 H         -28.0328   32.1428   34.8217 H     201  LVZ201      0.2562
   2729 H         -30.5455   36.5103   34.7447 H     202  IDS202      0.0263
   2730 H         -31.1436   34.6587   34.5483 H     202  IDS202      0.0263
   2731 H         -31.1220   35.0498   35.0947 H     202  IDS202      0.0263
   2732 H         -31.3184   36.3010   33.9368 H     202  IDS202      0.0263
   2733 H         -30.8181   34.7704   35.0264 H     202  IDS202      0.0271
   2734 H         -31.9385   35.9574   34.8327 H     202  IDS202      0.0271
   2735 H         -30.9302   36.7975   34.2811 H     202  IDS202      0.0287
   2736 H         -29.8262   35.6838   34.3760 H     202  IDS202      0.0287
   2737 H         -30.4389   37.2790   34.8690 H     202  IDS202      0.0263
   2738 H         -30.2222   36.0471   36.0071 H     202  IDS202      0.0263
   2739 H         -30.2750   36.3400   36.3511 H     202  IDS202      0.0310
   2740 H         -31.0226   35.0969   36.0310 H     202  IDS202      0.0310
   2741 H         -31.2405   35.4885   34.7544 H     202  IDS202      0.1225
   2742 H         -30.1369   36.9600   34.9040 H     202  IDS202      0.0233
   2743 H         -31.7712   36.6945   35.4620 H     202  IDS202      0.0233
   2744 H         -31.0763   35.6359   34.2581 H     202  IDS202      0.0233
   2745 H         -29.8565   35.4599   35.6768 H     202  IDS202      0.0557
   2746 H         -31.5902   36.5618   35.2774 H     202  IDS202      0.0557
   2747 H         -30.8701   36.0794   36.1945 H     202  IDS202      0.0230
   2748 H         -32.2508   36.0426   35.1243 H     202  IDS202      0.0230
   2749 H         -31.1037   37.3569   35.0255 H     202  IDS202      0.0230
   2750 H         -31.9402   36.2616   36.8612 H     202  IDS202      0.0595
   2751 H         -31.3778   36.4178   34.9729 H     202  IDS202      0.0595
   2752 H         -30.0524   34.3399   34.9022 H     202  IDS202      0.0538
   2753 H         -30.9843   35.5006   35.8919 H     202  IDS202      0.0538
   2754 H         -30.0540   34.9264   35.1712 H     202  IDS202      0.0271
   2755 H         -31.5447   34.8650   35.9458 H     202  IDS202      0.0271
   2756 H         -30.3417   36.7351   36.7001 H     202  IDS202      0.0274
   2757 H         -29.9210   35.2885   36.6410 H     202  IDS202      0.0274
   2758 H         -34.9899   34.7790   37.8826 H     203  SGN203      0.1137
   2759 H         -37.2661   36.3590   38.7124 H     203  SGN203      0.1137
   2760 H         -36.7329   36.8195   39.1435 H     203  SGN203      0.1137
   2761 H         -34.6900   35.5550   37.9740 H     203  SGN203      0.0980
   2762 H         -36.5033   35.0183   36.8095 H     203  SGN203      0.0980
   2763 H         -37.0270   37.5609   38.4514 H     203  SGN203      0.1149
   2764 H         -38.3228   37.1484   38.4066 H     203  SGN203      0.1151
   2765 H         -36.4211   37.3338   35.7204 H     203  SGN203      0.1366
   2766 H         -37.6349   35.9903   38.1151 H     203  SGN203      0.1162
   2767 H         -35.4811   34.7935   37.5075 H     203  SGN203      0.1137
   2768 H         -30.7161   39.3646   36.7210 H     203  SGN203      0.1382
   2769 H         -29.9800   40.6487   35.9571 H     203  SGN203      0.1382
   2770 H         -30.3328   38.4768   35.4378 H     203  SGN203      0.1613
   2771 H         -28.9443   39.3419   35.7023 H     203  SGN203      0.1645
   2772 H         -30.4741   40.9631   35.8874 H     203  SGN203      0.1919
   2773 H         -28.9900   40.1760   35.7900 H     203  SGN203      0.1146
   2774 H         -30.3500   39.7573   36.6557 H     203  SGN203      0.1146
   2775 H         -30.3500   39.6356   34.9945 H     203  SGN203      0.1146
   2776 H         -28.9757   39.9470   34.5589 H     203  SGN203      0.2134
   2777 H         -28.9150   40.1670   35.7330 H     203  SGN203      0.1146
   2778 H         -30.2750   40.8456   35.0516 H     203  SGN203      0.1146
   2779 H         -30.2750   40.4178   36.6614 H     203  SGN203      0.1146
   2780 H         -30.7645   40.7452   36.2341 H     203  SGN203      0.2134
   2781 H         -29.4458   41.1644   35.8853 H     203  SGN203      0.1398
   2782 H         -29.1719   39.5988   36.3836 H     203  SGN203      0.1398
   2783 H         -29.9201   40.0417   36.9398 H     203  SGN203      0.1146
   2784 H         -29.7510   38.3903   36.8035 H     203  SGN203      0.1146
   2785 H         -30.3511   40.0605   37.2560 H     203  SGN203      0.1438
   2786 H         -30.9730   40.1893   36.6866 H     203  SGN203      0.1657
   2787 H         -29.1027   39.9697   36.4615 H     203  SGN203      0.1632
   2788 H         -26.6120   27.9640   35.1990 H     201  LVZ201      0.2052
   2789 H         -27.9053   27.4353   34.4528 H     201  LVZ201      0.2052
   2790 H         -27.5046   27.9222   34.3235 H     201  LVZ201      0.2563
   2791 H         -26.5280   27.8280   35.7240 H     201  LVZ201      0.2052
   2792 H         -27.8213   28.1757   34.8782 H     201  LVZ201      0.2052
   2793 H         -27.2871   27.3858   36.1109 H     201  LVZ201      0.2563
   2794 H         -27.6180   28.9191   36.3717 H     201  LVZ201      0.2563
   2795 H         -27.8410   27.7076   33.9551 H     201  LVZ201      0.2098
   2796 H         -27.7141   28.8926   34.4234 H     201  LVZ201      0.2563
   2797 H         -31.2850   37.9550   34.3640 H     203  SGN203      0.0000
   2798 H         -30.8410   38.4480   33.9450 H     203  SGN203      0.0000
   2799 H         -31.3120   38.1420   33.8910 H     203  SGN203      0.0000
   2800 H         -30.9620   38.0560   34.1310 H     203  SGN203      0.0000
   2801 H         -30.9910   38.3130   34.1900 H     203  SGN203      0.0000
   2802 H         -30.7570   38.6440   34.1690 H     203  SGN203      0.0000
   2803 H         -29.9480   38.3960   33.7860 H     203  SGN203      0.0000
   2804 H         -30.3770   38.3400   33.8420 H     203  SGN203      0.0000
   2805 H         -30.5340   38.3150   33.9820 H     203  SGN203      0.0000
   2806 H         -30.8510   38.6680   34.2370 H     203  SGN203      0.0000
   2807 H         -30.4810   38.3090   34.2560 H     203  SGN203      0.0000
   2808 H         -30.9810   38.6870   34.0740 H     203  SGN203      0.0000
   2809 H         -31.1690   37.7390   34.4480 H     203  SGN203      0.0000
   2810 H         -30.5390   33.5310   35.2610 H     202  IDS202      0.0000
   2811 H         -30.4280   34.0400   35.5420 H     202  IDS202      0.0000
   2812 H         -31.0270   33.6050   35.2580 H     202  IDS202      0.0000
   2813 H         -30.4380   33.8080   35.5350 H     202  IDS202      0.0000
   2814 H         -30.1850   33.9630   35.2590 H     202  IDS202      0.0000
   2815 H         -30.0020   34.1050   35.5020 H     202  IDS202      0.0000
   2816 H         -29.8600   33.6730   35.3500 H     202  IDS202      0.0000
   2817 H         -30.2980   33.8980   36.1750 H     202  IDS202      0.0000
   2818 H         -29.9320   33.7400   35.2940 H     202  IDS202      0.0000
   2819 H         -30.2820   34.0090   35.3620 H     202  IDS202      0.0000
   2820 H         -30.8780   34.2090   35.7400 H     202  IDS202      0.0000
   2821 H         -29.7590   33.2150   35.7460 H     202  IDS202      0.0000
   2822 H         -30.2090   33.9300   36.0080 H     202  IDS202      0.0000
   2823 H         -29.9550   33.4400   35.8420 H     202  IDS202      0.0000
   2824 H         -30.3750   33.7990   36.5570 H     202  IDS202      0.0000
   2825 H         -29.8880   33.7350   36.6750 H     202  IDS202      0.0000
   2826 H         -30.8470   40.8040   37.5520 H     203  SGN203      0.2052
   2827 H         -32.1403   40.3509   36.7576 H     203  SGN203      0.2052
   2828 H         -31.6861   42.0502   37.7709 H     203  SGN203      0.2052
   2829 H         -30.2265   41.4070   38.1971 H     203  SGN203      0.2562
   2830 H         -30.1620   41.0380   37.4840 H     203  SGN203      0.2052
   2831 H         -31.4553   41.8966   37.7989 H     203  SGN203      0.2052
   2832 H         -31.8041   42.2995   37.0293 H     203  SGN203      0.2528
   2833 H         -31.9229   42.3446   37.3888 H     203  SGN203      0.2528
   2834 H         -30.4180   41.8960   37.7620 H     203  SGN203      0.2052
   2835 H         -31.7113   42.5886   38.3592 H     203  SGN203      0.2052
   2836 H         -32.0061   41.5363   38.8457 H     203  SGN203      0.2532
   2837 H         -30.0193   35.4999   33.4400 H     202  IDS202      0.0230
   2838 H         -28.9237   34.7800   32.4674 H     202  IDS202      0.0230
   2839 H         -29.9924   35.5343   33.9053 H     202  IDS202      0.0194
   2840 H         -29.1775   35.3088   32.3761 H     202  IDS202      0.0194
   2841 H         -28.9048   34.1844   33.6855 H     202  IDS202      0.0194
   2842 H         -29.7858   33.5108   33.8298 H     202  IDS202      0.0230
   2843 H         -30.0077   34.7678   32.6365 H     202  IDS202      0.0230
   2844 H         -30.1434   35.1441   34.3374 H     202  IDS202      0.0230
   2845 H         -28.3794   34.2107   34.1877 H     202  IDS202      0.0263
   2846 H         -27.7631   35.3812   34.1229 H     202  IDS202      0.1029
   2847 H         -29.4922   35.6926   34.2502 H     202  IDS202      0.0556
   2848 H         -27.7644   35.7915   34.0090 H     202  IDS202      0.0556
   2849 H         -28.5618   34.2369   33.9889 H     202  IDS202      0.0556
   2850 H         -28.7304   34.8949   32.3465 H     202  IDS202      0.0194
   2851 H         -27.6620   34.0990   33.4771 H     202  IDS202      0.0194
   2852 H         -29.1732   34.7777   34.0327 H     202  IDS202      0.0194
   2853 H         -29.2193   33.7476   33.1723 H     202  IDS202      0.0313
   2854 H         -28.0206   34.2096   34.6135 H     202  IDS202      0.0194
   2855 H         -28.6867   35.5916   33.7770 H     202  IDS202      0.0194
   2856 H         -27.5387   34.5512   32.9691 H     202  IDS202      0.0194
   2857 H         -27.6749   34.2252   33.9551 H     202  IDS202      0.0532
   2858 H         -28.0141   35.6203   35.0199 H     202  IDS202      0.0532
   2859 H         -29.8886   35.2377   32.6565 H     202  IDS202      0.0268
   2860 H         -28.5963   35.8594   33.2893 H     202  IDS202      0.0268
   2861 H         -28.7637   34.3338   33.3254 H     202  IDS202      0.0569
   2862 H         -30.3898   34.8278   34.4767 H     202  IDS202      0.0306
   2863 H         -30.7291   35.1238   34.6296 H     202  IDS202      0.0274
   2864 H         -29.4540   34.7942   35.5255 H     202  IDS202      0.0274
   2865 H         -28.2431   34.2697   32.5239 H     202  IDS202      0.0194
   2866 H         -28.5864   33.2426   33.8951 H     202  IDS202      0.0194
   2867 H         -28.2434   34.9386   34.1381 H     202  IDS202      0.0194
   2868 H         -28.3299   35.7249   34.1276 H     202  IDS202      0.0380
   2869 H         -28.1223   34.7459   33.6750 H     202  IDS202      0.0265
   2870 H         -29.0584   33.6460   34.3004 H     202  IDS202      0.0265
   2871 H         -28.8521   34.8399   35.4026 H     202  IDS202      0.0313
   2872 H         -29.1577   35.1932   38.2580 H     202  IDS202      0.2563
   2873 H         -30.5494   34.8376   37.1746 H     202  IDS202      0.2563
   2874 H         -31.5292   34.6098   37.6638 H     202  IDS202      0.2563
   2875 H         -29.7060   35.2290   39.3680 H     202  IDS202      0.2052
   2876 H         -30.9993   34.3949   38.9930 H     202  IDS202      0.2052
   2877 H         -30.6398   34.4880   38.0323 H     202  IDS202      0.2563
   2878 H         -34.7152   36.7611   37.8009 H     203  SGN203      0.0230
   2879 H         -36.1545   37.7514   37.7790 H     203  SGN203      0.0230
   2880 H         -34.6809   38.3356   37.0440 H     203  SGN203      0.0230
   2881 H         -34.6024   38.3335   35.5396 H     203  SGN203      0.0529
   2882 H         -34.8266   38.1858   37.3068 H     203  SGN203      0.0529
   2883 H         -36.0828   38.2868   35.3663 H     203  SGN203      0.0529
   2884 H         -33.9400   37.8380   37.0490 H     203  SGN203      0.0194
   2885 H         -35.3667   36.9168   36.6378 H     203  SGN203      0.0194
   2886 H         -35.3667   38.6547   36.4569 H     203  SGN203      0.0194
   2887 H         -35.3667   37.9424   38.0524 H     203  SGN203      0.0194
   2888 H         -35.4818   38.6630   36.9331 H     203  SGN203      0.0291
   2889 H         -34.0197   37.5822   36.9182 H     203  SGN203      0.0291
   2890 H         -35.4699   37.4575   35.3658 H     203  SGN203      0.0301
   2891 H         -33.4170   37.6521   35.5396 H     203  SGN203      0.0268
   2892 H         -35.7182   38.3741   36.3182 H     203  SGN203      0.1225
   2893 H         -34.9843   38.9128   36.0706 H     203  SGN203      0.0268
   2894 H         -33.9594   37.7360   37.0009 H     203  SGN203      0.0268
   2895 H         -35.6737   37.5650   37.0234 H     203  SGN203      0.0337
   2896 H         -35.7672   37.9848   37.3973 H     203  SGN203      0.0265
   2897 H         -36.3541   39.3005   36.6465 H     203  SGN203      0.0265
   2898 H         -35.4346   39.3895   38.6388 H     203  SGN203      0.0194
   2899 H         -34.5452   39.6674   37.4397 H     203  SGN203      0.0194
   2900 H         -36.2810   37.4401   36.7852 H     203  SGN203      0.0592
   2901 H         -34.5647   37.7859   37.8166 H     203  SGN203      0.0592
   2902 H         -35.6229   36.2030   36.6892 H     203  SGN203      0.0265
   2903 H         -35.0939   36.7839   37.9488 H     203  SGN203      0.0194
   2904 H         -35.2372   37.7696   39.3844 H     203  SGN203      0.0194
   2905 H         -33.9504   38.0722   38.2417 H     203  SGN203      0.0194
   2906 H         -33.7470   37.8390   38.3070 H     203  SGN203      0.0194
   2907 H         -35.1737   38.5986   37.6431 H     203  SGN203      0.0194
   2908 H         -35.1737   38.0342   39.2967 H     203  SGN203      0.0194
   2909 H         -35.1737   36.8843   37.9812 H     203  SGN203      0.0194
   2910 H         -27.9699   29.7892   39.9782 H     201  LVZ201      0.2439
   2911 H         -28.3662   28.0806   39.2420 H     201  LVZ201      0.2563
   2912 H         -27.9220   30.4318   39.7922 H     201  LVZ201      0.2563
   2913 H         -28.2500   28.0060   40.1200 H     201  LVZ201      0.2052
   2914 H         -29.5433   28.6626   39.4834 H     201  LVZ201      0.2052
   2915 H         -28.1750   29.0930   40.5530 H     201  LVZ201      0.2052
   2916 H         -29.4683   28.5558   41.2931 H     201  LVZ201      0.2052
   2917 H         -28.9929   28.9862   39.1744 H     201  LVZ201      0.2563
   2918 H         -26.3810   28.3950   39.7380 H     201  LVZ201      0.2052
   2919 H         -27.6743   29.1320   39.1965 H     201  LVZ201      0.2052
   2920 H         -29.2730   32.3040   36.8310 H     201  LVZ201      0.0000
   2921 H         -29.0190   32.7860   36.8740 H     201  LVZ201      0.0000
   2922 H         -28.6090   32.4710   37.4140 H     201  LVZ201      0.0000
   2923 H         -29.6620   32.2150   36.9800 H     201  LVZ201      0.0000
   2924 H         -29.2820   32.5750   36.7900 H     201  LVZ201      0.0000
   2925 H         -29.4140   32.8160   36.9090 H     201  LVZ201      0.0000
   2926 H         -28.4680   32.4370   36.7580 H     201  LVZ201      0.0000
   2927 H         -29.5710   32.2710   37.2540 H     201  LVZ201      0.0000
   2928 H         -29.0660   32.4990   36.9590 H     201  LVZ201      0.0000
   2929 H         -29.8890   30.9640   37.5690 H     201  LVZ201      0.0000
   2930 H         -29.6380   32.3590   37.3740 H     201  LVZ201      0.0000
   2931 H         -29.8390   32.5890   37.1520 H     201  LVZ201      0.0000
   2932 H         -29.0950   32.9270   37.7580 H     201  LVZ201      0.0000
   2933 H         -29.1420   32.3020   37.3750 H     201  LVZ201      0.0000
   2934 H         -29.0560   32.2930   36.9390 H     201  LVZ201      0.0000
   2935 H         -28.7510   32.7690   37.7350 H     201  LVZ201      0.0000
   2936 H         -32.1328   38.8004   35.3929 H     203  SGN203      0.0230
   2937 H         -31.1136   38.5594   36.7915 H     203  SGN203      0.0230
   2938 H         -30.7072   39.7859   35.6152 H     203  SGN203      0.0230
   2939 H         -30.5571   39.0725   35.4612 H     203  SGN203      0.1225
   2940 H         -32.3551   39.0052   34.8949 H     203  SGN203      0.0345
   2941 H         -31.8415   40.4281   36.3902 H     203  SGN203      0.0265
   2942 H         -30.4346   39.2550   36.0778 H     203  SGN203      0.0265
   2943 H         -30.7459   40.3131   35.1871 H     203  SGN203      0.0236
   2944 H         -30.8887   39.7802   36.7124 H     203  SGN203      0.0236
   2945 H         -30.0444   40.2405   34.8581 H     203  SGN203      0.0471
   2946 H         -30.8524   38.9393   34.7725 H     203  SGN203      0.0471
   2947 H         -31.7266   39.8495   36.0376 H     203  SGN203      0.0669
   2948 H         -30.4640   38.6603   35.1490 H     203  SGN203      0.0274
   2949 H         -30.5147   39.5073   36.6764 H     203  SGN203      0.0274
   2950 H         -30.4102   40.4064   35.1819 H     203  SGN203      0.0274
   2951 H         -30.9681   40.5646   35.1481 H     203  SGN203      0.0230
   2952 H         -31.1671   39.2164   34.5566 H     203  SGN203      0.0230
   2953 H         -31.3127   40.6900   35.0902 H     203  SGN203      0.0230
   2954 H         -32.2287   39.3249   35.6822 H     203  SGN203      0.0230
   2955 H         -30.4843   39.2454   35.6194 H     203  SGN203      0.0230
   2956 H         -31.7543   40.6069   36.2298 H     203  SGN203      0.0534
   2957 H         -30.1057   39.9700   35.9620 H     203  SGN203      0.0534
   2958 H         -32.2819   40.6905   35.8168 H     203  SGN203      0.1225
   2959 H         -32.1321   40.6894   36.6382 H     203  SGN203      0.0265
   2960 H         -30.5388   40.7788   36.6619 H     203  SGN203      0.0265
   2961 H         -30.1960   38.8280   36.2690 H     203  SGN203      0.0194
   2962 H         -31.6227   38.6597   35.2743 H     203  SGN203      0.0194
   2963 H         -31.6227   39.7736   36.6206 H     203  SGN203      0.0194
   2964 H         -31.6227   38.0508   36.9121 H     203  SGN203      0.0194
   2965 H         -32.5079   39.2288   37.0076 H     203  SGN203      0.0265
   2966 H         -32.3694   40.3928   36.0179 H     203  SGN203      0.0265
   2967 H         -31.7748   38.9543   37.1159 H     203  SGN203      0.0304
   2968 H         -30.4910   39.5390   36.5030 H     203  SGN203      0.0194
   2969 H         -31.9177   38.7294   35.9011 H     203  SGN203      0.0194
   2970 H         -31.9177   40.4650   36.1028 H     203  SGN203      0.0194
   2971 H         -31.9177   39.4225   37.5051 H     203  SGN203      0.0194
   2972 H         -30.7761   38.7122   36.1217 H     203  SGN203      0.0298
   2973 H         -27.3530   34.0889   32.0085 H     202  IDS202      0.1366
   2974 H         -27.5538   35.4925   30.8812 H     202  IDS202      0.1154
   2975 H         -29.5208   34.0504   31.0972 H     202  IDS202      0.1137
   2976 H         -25.8900   35.1470   31.5100 H     202  IDS202      0.0980
   2977 H         -27.7033   34.4221   32.5677 H     202  IDS202      0.0980
   2978 H         -26.6392   34.0856   31.7968 H     202  IDS202      0.1137
   2979 H         -28.9193   34.4716   29.7681 H     202  IDS202      0.1148
   2980 H         -30.0198   33.9546   31.3154 H     202  IDS202      0.1154
   2981 H         -29.1346   31.6082   35.2337 H     201  LVZ201      0.0233
   2982 H         -28.1980   31.4576   36.7011 H     201  LVZ201      0.0233
   2983 H         -29.9313   31.2411   36.7449 H     201  LVZ201      0.0233
   2984 H         -29.4795   30.1100   37.2806 H     201  LVZ201      0.0304
   2985 H         -28.0934   31.0063   36.9463 H     201  LVZ201      0.0265
   2986 H         -28.8043   29.7056   36.7214 H     201  LVZ201      0.0265
   2987 H         -29.4546   30.9910   35.3763 H     201  LVZ201      0.0271
   2988 H         -28.4872   31.9135   36.2921 H     201  LVZ201      0.0271
   2989 H         -29.8213   31.7325   36.4809 H     201  LVZ201      0.0235
   2990 H         -29.0724   30.2484   35.9426 H     201  LVZ201      0.0235
   2991 H         -28.2326   31.7690   35.7543 H     201  LVZ201      0.0235
   2992 H         -27.8086   29.8645   35.9172 H     201  LVZ201      0.0309
   2993 H         -28.8053   30.3968   37.8859 H     201  LVZ201      0.0271
   2994 H         -30.0356   30.7188   37.0725 H     201  LVZ201      0.0271
   2995 H         -27.8865   30.1242   36.7873 H     201  LVZ201      0.0271
   2996 H         -28.8632   30.3781   35.6357 H     201  LVZ201      0.0271
   2997 H         -28.7702   31.0055   37.8809 H     201  LVZ201      0.0273
   2998 H         -28.9929   32.1331   36.8832 H     201  LVZ201      0.0273
   2999 H         -28.8118   31.3683   35.2834 H     201  LVZ201      0.0265
   3000 H         -29.5638   31.6833   37.4310 H     201  LVZ201      0.0265
   3001 H         -28.1135   30.5700   36.9889 H     201  LVZ201      0.0988
   3002 H         -28.9683   32.0972   36.6255 H     201  LVZ201      0.0988
   3003 H         -27.7695   30.4260   35.6174 H     201  LVZ201      0.0194
   3004 H         -28.6867   29.2097   36.4732 H     201  LVZ201      0.0194
   3005 H         -28.6165   30.8439   37.0875 H     201  LVZ201      0.0194
   3006 H         -29.3537   29.7689   36.7676 H     201  LVZ201      0.0268
   3007 H         -28.4216   31.9653   36.4596 H     201  LVZ201      0.0230
   3008 H         -27.8374   30.6658   37.4711 H     201  LVZ201      0.0230
   3009 H         -29.4051   31.3740   37.7773 H     201  LVZ201      0.0230
   3010 H         -27.4704   31.5715   37.0455 H     201  LVZ201      0.0276
   3011 H         -28.1731   30.5434   37.9167 H     201  LVZ201      0.0276
   3012 H         -29.6138   36.0569   32.8777 H     202  IDS202      0.0265
   3013 H         -30.9219   35.3062   33.3671 H     202  IDS202      0.0265
   3014 H         -29.9572   36.8560   32.7767 H     202  IDS202      0.0628
   3015 H         -30.6855   34.9843   33.1376 H     202  IDS202      0.0294
   3016 H         -31.4594   35.9732   34.2146 H     202  IDS202      0.0294
   3017 H         -29.2230   35.1607   33.6725 H     202  IDS202      0.0294
   3018 H         -30.3012   35.2199   34.7563 H     202  IDS202      0.0294
   3019 H         -29.0253   36.0022   35.1506 H     202  IDS202      0.0194
   3020 H         -29.5439   35.2728   33.9250 H     202  IDS202      0.0194
   3021 H         -29.2338   36.5015   33.0134 H     202  IDS202      0.0235
   3022 H         -30.4048   36.2780   34.5203 H     202  IDS202      0.0235
   3023 H         -28.8364   34.8564   32.9956 H     202  IDS202      0.0532
   3024 H         -30.2170   35.9904   33.0496 H     202  IDS202      0.0532
   3025 H         -29.0806   35.2962   33.7302 H     202  IDS202      0.0265
   3026 H         -30.6954   35.3723   34.7186 H     202  IDS202      0.0265
   3027 H         -28.3241   35.2678   33.9966 H     202  IDS202      0.0569
   3028 H         -28.2688   36.1391   34.7090 H     202  IDS202      0.0340
   3029 H         -28.5717   36.6504   33.9001 H     202  IDS202      0.0232
   3030 H         -29.5033   35.2725   34.4354 H     202  IDS202      0.0232
   3031 H         -29.7406   36.8324   35.1860 H     202  IDS202      0.0232
   3032 H         -30.4796   36.1406   35.0828 H     202  IDS202      0.0268
   3033 H         -31.0221   37.0077   33.8370 H     202  IDS202      0.0268
   3034 H         -30.1044   36.2661   33.7966 H     202  IDS202      0.0538
   3035 H         -30.0692   37.2393   35.2955 H     202  IDS202      0.0538
   3036 H         -29.3247   36.5815   33.9081 H     202  IDS202      0.0346
   3037 H         -29.6707   35.7147   35.4690 H     202  IDS202      0.0271
   3038 H         -30.2373   37.0591   34.7141 H     202  IDS202      0.0271
   3039 H         -29.3393   36.3932   33.9174 H     202  IDS202      0.0314
   3040 H         -29.8838   34.6716   33.9453 H     202  IDS202      0.0314
   3041 H         -30.7723   36.2329   33.7430 H     202  IDS202      0.0230
   3042 H         -30.4909   34.9501   34.8956 H     202  IDS202      0.0230
   3043 H         -29.3216   36.2362   34.7170 H     202  IDS202      0.0230
   3044 H         -28.8705   36.5165   34.9436 H     202  IDS202      0.1225
   3045 H         -27.1168   27.7824   38.7791 H     201  LVZ201      0.2439
   3046 H         -26.3540   26.9620   38.7559 H     201  LVZ201      0.2563
   3047 H         -28.2172   27.1819   38.2081 H     201  LVZ201      0.2563
   3048 H         -26.9110   26.9000   38.6220 H     201  LVZ201      0.2052
   3049 H         -28.2043   26.1427   39.1347 H     201  LVZ201      0.2052
   3050 H         -27.5173   27.9531   39.8908 H     201  LVZ201      0.2563
   3051 H         -26.8422   28.0709   38.4840 H     201  LVZ201      0.2563
   3052 H         -26.8520   26.9690   38.5300 H     201  LVZ201      0.2052
   3053 H         -28.1453   26.3057   39.1596 H     201  LVZ201      0.2052
   3054 H         -28.4876   31.7307   34.5411 H     201  LVZ201      0.0230
   3055 H         -28.7460   31.4500   36.2463 H     201  LVZ201      0.0230
   3056 H         -27.3263   30.8029   35.4597 H     201  LVZ201      0.0230
   3057 H         -27.1330   31.9070   35.1590 H     201  LVZ201      0.0194
   3058 H         -28.5597   31.5677   34.2090 H     201  LVZ201      0.0194
   3059 H         -28.5597   32.8994   35.3402 H     201  LVZ201      0.0194
   3060 H         -28.5597   31.2539   35.9278 H     201  LVZ201      0.0194
   3061 H         -28.0921   30.6977   36.0160 H     201  LVZ201      0.1225
   3062 H         -28.3923   30.6427   35.6029 H     201  LVZ201      0.0268
   3063 H         -28.8326   32.3162   35.3743 H     201  LVZ201      0.0268
   3064 H         -27.8692   32.5299   34.8295 H     201  LVZ201      0.0307
   3065 H         -26.9184   31.9455   36.1710 H     201  LVZ201      0.0307
   3066 H         -28.4038   32.8463   35.7153 H     201  LVZ201      0.0260
   3067 H         -27.0834   32.4198   34.9258 H     201  LVZ201      0.0260
   3068 H         -26.9336   30.8708   35.8540 H     201  LVZ201      0.0566
   3069 H         -27.4749   30.9877   36.7047 H     201  LVZ201      0.0265
   3070 H         -28.6382   31.9567   36.9520 H     201  LVZ201      0.0265
   3071 H         -27.4281   30.6504   35.3398 H     201  LVZ201      0.0232
   3072 H         -27.4714   31.2635   36.9754 H     201  LVZ201      0.0232
   3073 H         -26.9102   32.2854   35.6740 H     201  LVZ201      0.0232
   3074 H         -28.5919   31.4117   36.4113 H     201  LVZ201      0.0230
   3075 H         -27.1781   32.4211   36.5989 H     201  LVZ201      0.0230
   3076 H         -27.0733   30.9303   35.6936 H     201  LVZ201      0.0230
   3077 H         -28.4139   32.8413   34.9700 H     201  LVZ201      0.1225
   3078 H         -27.2313   31.8737   34.9713 H     201  LVZ201      0.0268
   3079 H         -29.2601   32.1930   36.7283 H     201  LVZ201      0.0233
   3080 H         -28.7655   31.1259   35.4361 H     201  LVZ201      0.0233
   3081 H         -28.6065   32.8559   35.2496 H     201  LVZ201      0.0233
   3082 H         -28.3383   32.6002   36.9908 H     201  LVZ201      0.0301
   3083 H         -26.6300   31.2140   35.4240 H     201  LVZ201      0.0194
   3084 H         -28.0567   31.2771   36.4308 H     201  LVZ201      0.0194
   3085 H         -28.0567   30.3105   34.9752 H     201  LVZ201      0.0194
   3086 H         -28.0567   32.0544   34.8659 H     201  LVZ201      0.0194
   3087 H         -28.5529   31.0635   35.1752 H     201  LVZ201      0.0301
   3088 H         -26.4600   31.7790   35.7410 H     201  LVZ201      0.0194
   3089 H         -27.8867   32.7200   36.1047 H     201  LVZ201      0.0194
   3090 H         -27.8867   30.9936   36.3741 H     201  LVZ201      0.0194
   3091 H         -27.8867   31.6234   34.7443 H     201  LVZ201      0.0194
   3092 H         -28.4215   32.1317   37.0583 H     201  LVZ201      0.0265
   3093 H         -27.2731   32.3551   35.0449 H     201  LVZ201      0.0230
   3094 H         -27.7701   30.8263   35.4239 H     201  LVZ201      0.0230
   3095 H         -32.6800   38.0030   35.1090 H     203  SGN203      0.2052
   3096 H         -33.9733   38.5262   35.8591 H     203  SGN203      0.2052
   3097 H         -33.6542   38.6531   35.6578 H     203  SGN203      0.2562
   3098 H         -32.0404   38.0860   34.9016 H     203  SGN203      0.2563
   3099 H         -32.3550   38.5570   35.1650 H     203  SGN203      0.2052
   3100 H         -33.6483   39.0739   35.9194 H     203  SGN203      0.2052
   3101 H         -32.8110   36.2188   35.4473 H     203  SGN203      0.2562
   3102 H         -32.3370   37.7540   35.7680 H     203  SGN203      0.2052
   3103 H         -33.6303   37.4327   36.6242 H     203  SGN203      0.2052
   3104 H         -33.4630   37.3180   37.4972 H     203  SGN203      0.2094
   3105 H         -32.4002   37.6247   35.9753 H     203  SGN203      0.2052
   3106 H         -25.8400   30.8910   34.6900 H     201  LVZ201      0.0194
   3107 H         -27.2667   31.8220   35.0785 H     201  LVZ201      0.0194
   3108 H         -27.2667   30.0891   35.3021 H     201  LVZ201      0.0194
   3109 H         -27.2667   30.7619   33.6895 H     201  LVZ201      0.0194
   3110 H         -28.0816   31.8472   34.2458 H     201  LVZ201      0.0227
   3111 H         -26.6711   31.5330   33.6106 H     201  LVZ201      0.0227
   3112 H         -28.1610   30.4596   35.0968 H     201  LVZ201      0.0227
   3113 H         -26.8962   31.6458   35.3121 H     201  LVZ201      0.0227
   3114 H         -26.5341   30.1085   34.5648 H     201  LVZ201      0.0227
   3115 H         -26.0110   30.8410   34.8880 H     201  LVZ201      0.0194
   3116 H         -27.4377   29.9560   34.4037 H     201  LVZ201      0.0194
   3117 H         -27.4377   31.7029   34.3637 H     201  LVZ201      0.0194
   3118 H         -27.4377   30.8641   35.8965 H     201  LVZ201      0.0194
   3119 H         -27.6909   30.8789   33.9072 H     201  LVZ201      0.0572
   3120 H         -27.3369   31.8370   35.3775 H     201  LVZ201      0.0230
   3121 H         -27.1615   31.3679   33.7035 H     201  LVZ201      0.0230
   3122 H         -25.8535   31.0941   34.8292 H     201  LVZ201      0.0230
   3123 H         -25.8647   30.4915   35.2448 H     201  LVZ201      0.0532
   3124 H         -26.6499   29.9296   33.7406 H     201  LVZ201      0.0532
   3125 H         -26.2603   30.2639   35.5844 H     201  LVZ201      0.0238
   3126 H         -27.8628   30.2035   34.8908 H     201  LVZ201      0.0238
   3127 H         -27.4550   31.4546   36.0402 H     201  LVZ201      0.0238
   3128 H         -27.5052   30.3647   34.4301 H     201  LVZ201      0.0555
   3129 H         -25.9186   30.9895   34.8114 H     201  LVZ201      0.0555
   3130 H         -27.1947   31.0597   36.0029 H     201  LVZ201      0.0555
   3131 H         -26.0110   30.8060   34.8900 H     201  LVZ201      0.0194
   3132 H         -27.4377   31.2049   33.9634 H     201  LVZ201      0.0194
   3133 H         -27.4377   31.4090   35.6988 H     201  LVZ201      0.0194
   3134 H         -27.4377   29.8041   35.0078 H     201  LVZ201      0.0194
   3135 H         -26.3170   31.1100   34.5370 H     201  LVZ201      0.0194
   3136 H         -27.7437   32.0941   34.3150 H     201  LVZ201      0.0194
   3137 H         -27.7437   30.8102   35.5002 H     201  LVZ201      0.0194
   3138 H         -27.7437   30.4257   33.7957 H     201  LVZ201      0.0194
   3139 H         -28.3949   31.4620   34.2416 H     201  LVZ201      0.0532
   3140 H         -27.2096   30.2519   34.8124 H     201  LVZ201      0.0532
   3141 H         -27.7728   31.9096   34.3298 H     201  LVZ201      0.0238
   3142 H         -27.5267   31.5044   36.0116 H     201  LVZ201      0.0238
   3143 H         -27.9345   30.2532   34.8621 H     201  LVZ201      0.0238
   3144 H         -25.8193   30.3215   34.7192 H     201  LVZ201      0.0230
   3145 H         -27.3762   29.4931   34.5628 H     201  LVZ201      0.0230
   3146 H         -27.5101   30.3112   34.3151 H     201  LVZ201      0.1225
   3147 H         -26.1055   31.6674   34.0993 H     201  LVZ201      0.0238
   3148 H         -26.2302   30.0286   34.6925 H     201  LVZ201      0.0238
   3149 H         -26.0267   31.3513   35.8160 H     201  LVZ201      0.0238
   3150 H         -26.5159   31.9098   35.8289 H     201  LVZ201      0.1225
   3151 H         -26.8222   30.4764   35.8046 H     201  LVZ201      0.0260
   3152 H         -28.1334   30.7410   34.7116 H     201  LVZ201      0.0260
   3153 H         -29.4850   33.9590   32.9000 H     202  IDS202      0.0000
   3154 H         -29.7580   34.0260   33.0800 H     202  IDS202      0.0000
   3155 H         -29.5950   33.7730   33.1160 H     202  IDS202      0.0000
   3156 H         -29.3600   33.9650   33.3140 H     202  IDS202      0.0000
   3157 H         -28.7860   34.4910   33.1830 H     202  IDS202      0.0000
   3158 H         -28.7270   33.5370   32.7780 H     202  IDS202      0.0000
   3159 H         -29.3330   33.8120   33.5300 H     202  IDS202      0.0000
   3160 H         -29.5230   34.2850   33.4100 H     202  IDS202      0.0000
   3161 H         -29.8870   34.3430   34.1950 H     202  IDS202      0.0000
   3162 H         -28.7600   33.6220   32.8810 H     202  IDS202      0.0000
   3163 H         -29.1920   33.7140   33.5190 H     202  IDS202      0.0000
   3164 H         -29.6240   33.9890   33.7730 H     202  IDS202      0.0000
   3165 H         -33.4540   37.1190   36.9760 H     203  SGN203      0.0000
   3166 H         -31.9670   36.9200   36.5930 H     203  SGN203      0.0000
   3167 H         -32.2730   37.1130   37.0040 H     203  SGN203      0.0000
   3168 H         -32.2780   37.5010   38.7600 H     203  SGN203      0.0000
   3169 H         -32.0900   37.4290   38.6620 H     203  SGN203      0.0000
   3170 H         -35.2130   37.8940   36.3940 H     203  SGN203      0.0000
   3171 H         -35.2430   38.4150   35.2490 H     203  SGN203      0.0000
   3172 H         -34.6550   37.6890   35.2960 H     203  SGN203      0.0000
   3173 H         -34.0850   38.0830   34.8220 H     203  SGN203      0.0000
   3174 H         -34.9410   39.0510   35.6930 H     203  SGN203      0.0000
   3175 H         -34.7790   39.0490   35.2160 H     203  SGN203      0.0000
   3176 H         -35.0820   39.5620   35.5480 H     203  SGN203      0.0000
   3177 H         -35.1690   39.6080   36.8170 H     203  SGN203      0.0000
   3178 H         -35.2430   37.9760   36.0850 H     203  SGN203      0.0000
   3179 H         -34.9350   38.2470   37.5620 H     203  SGN203      0.0000
   3180 H         -34.7990   38.0840   37.4330 H     203  SGN203      0.0000
   3181 H         -29.2989   31.5132   36.1966 H     201  LVZ201      0.2563
   3182 H         -29.5259   31.8684   38.1840 H     201  LVZ201      0.2528
   3183 H         -30.4032   31.8115   37.0140 H     201  LVZ201      0.2563
   3184 H         -30.6740   31.8183   37.4142 H     201  LVZ201      0.2562
   3185 H         -29.3040   32.3114   36.4688 H     201  LVZ201      0.2562
   3186 H         -29.9206   31.6497   38.7804 H     201  LVZ201      0.2563
   3187 H         -28.8793   30.7584   37.8404 H     201  LVZ201      0.2562
   3188 H         -28.3449   31.5802   37.0813 H     201  LVZ201      0.2562
   3189 H         -28.4014   30.9526   38.4392 H     201  LVZ201      0.2528
   3190 H         -25.5991   32.1542   33.2456 H     201  LVZ201      0.1225
   3191 H         -25.8457   31.0701   33.8525 H     201  LVZ201      0.0194
   3192 H         -27.0043   31.9266   34.2068 H     201  LVZ201      0.0194
   3193 H         -26.3232   30.7872   34.5985 H     201  LVZ201      0.0260
   3194 H         -26.6378   31.3394   33.1233 H     201  LVZ201      0.0260
   3195 H         -27.0404   31.6937   34.6397 H     201  LVZ201      0.0301
   3196 H         -25.1589   32.3265   34.4205 H     201  LVZ201      0.0253
   3197 H         -26.3422   31.0598   34.6404 H     201  LVZ201      0.0253
   3198 H         -26.5493   32.2373   33.3661 H     201  LVZ201      0.0253
   3199 H         -25.3478   32.1473   33.2250 H     201  LVZ201      0.0265
   3200 H         -25.4560   30.8332   34.6551 H     201  LVZ201      0.0265
   3201 H         -25.1124   32.0476   32.9573 H     201  LVZ201      0.0589
   3202 H         -24.9570   30.8416   34.2648 H     201  LVZ201      0.0589
   3203 H         -26.3089   31.2668   35.3694 H     201  LVZ201      0.1225
   3204 H         -24.6400   31.2000   34.4130 H     201  LVZ201      0.0194
   3205 H         -26.0667   32.2064   34.3426 H     201  LVZ201      0.0194
   3206 H         -26.0667   30.7578   35.3197 H     201  LVZ201      0.0194
   3207 H         -26.0667   30.6359   33.5767 H     201  LVZ201      0.0194
   3208 H         -24.8944   31.4307   34.3827 H     201  LVZ201      0.0291
   3209 H         -26.4033   30.5590   34.5832 H     201  LVZ201      0.0291
   3210 H         -25.8707   32.0042   35.1495 H     201  LVZ201      0.0230
   3211 H         -25.5768   31.3973   33.1978 H     201  LVZ201      0.0230
   3212 H         -27.4482   32.6700   33.6584 H     201  LVZ201      0.0230
   3213 H         -26.7392   32.0845   35.1442 H     201  LVZ201      0.0230
   3214 H         -27.1005   30.9683   33.8493 H     201  LVZ201      0.0230
   3215 H         -25.8869   32.2290   35.1624 H     201  LVZ201      0.0230
   3216 H         -27.4545   31.8659   34.4813 H     201  LVZ201      0.0230
   3217 H         -26.3473   32.9071   33.6192 H     201  LVZ201      0.0230
   3218 H         -26.5218   30.3846   33.5446 H     201  LVZ201      0.0591
   3219 H         -26.2430   32.1796   33.2250 H     201  LVZ201      0.0591
   3220 H         -24.9440   31.7360   34.1770 H     201  LVZ201      0.0194
   3221 H         -26.3707   32.0097   35.1480 H     201  LVZ201      0.0194
   3222 H         -26.3707   30.7583   33.9285 H     201  LVZ201      0.0194
   3223 H         -26.3707   32.4401   33.4545 H     201  LVZ201      0.0194
   3224 H         -24.7334   31.2130   34.6514 H     201  LVZ201      0.0230
   3225 H         -26.2640   32.6675   34.4761 H     201  LVZ201      0.0230
   3226 H         -26.9370   31.7728   34.7046 H     201  LVZ201      0.0194
   3227 H         -25.3563   31.9233   33.5544 H     201  LVZ201      0.0194
   3228 H         -26.0278   30.7166   34.6250 H     201  LVZ201      0.0194
   3229 H         -27.0833   31.6622   33.6029 H     201  LVZ201      0.0194
   3230 H         -30.4004   42.8523   35.0782 H     203  SGN203      0.2312
   3231 H         -31.4143   41.4588   34.9641 H     203  SGN203      0.2563
   3232 H         -29.5250   41.3730   33.8930 H     203  SGN203      0.2052
   3233 H         -30.8183   40.9420   34.6996 H     203  SGN203      0.2052
   3234 H         -29.2700   42.1130   34.1050 H     203  SGN203      0.2052
   3235 H         -30.5633   42.9337   34.5086 H     203  SGN203      0.2052
   3236 H         -29.7843   41.6019   32.6766 H     203  SGN203      0.2563
   3237 H         -30.1716   41.4139   35.9433 H     203  SGN203      0.2562
   3238 H         -31.7241   41.3424   35.0617 H     203  SGN203      0.2563
   3239 H         -29.7789   36.2185   30.0429 H     202  IDS202      0.2440
   3240 H         -29.3820   35.0700   30.3340 H     202  IDS202      0.2052
   3241 H         -30.6753   34.9571   29.4265 H     202  IDS202      0.2052
   3242 H         -28.1042   35.3723   30.4721 H     202  IDS202      0.2297
   3243 H         -26.8176   36.0815   31.4765 H     202  IDS202      0.2563
   3244 H         -28.3009   33.8951   29.4528 H     202  IDS202      0.2563
   3245 H         -28.6377   36.6801   30.9256 H     202  IDS202      0.2563
   3246 H         -31.5240   40.0970   35.7510 H     203  SGN203      0.0000
   3247 H         -31.1290   40.5630   35.0680 H     203  SGN203      0.0000
   3248 H         -31.5100   40.2900   35.1680 H     203  SGN203      0.0000
   3249 H         -31.1850   40.3130   35.0410 H     203  SGN203      0.0000
   3250 H         -31.4000   40.3770   35.4570 H     203  SGN203      0.0000
   3251 H         -31.3230   40.5260   35.1260 H     203  SGN203      0.0000
   3252 H         -30.4560   40.4250   35.1820 H     203  SGN203      0.0000
   3253 H         -30.7560   40.3130   35.1260 H     203  SGN203      0.0000
   3254 H         -31.4420   40.3230   34.9040 H     203  SGN203      0.0000
   3255 H         -31.2780   40.6460   35.2670 H     203  SGN203      0.0000
   3256 H         -31.0390   40.6270   35.2430 H     203  SGN203      0.0000
   3257 H         -31.2270   40.7840   35.6890 H     203  SGN203      0.0000
   3258 H         -31.8690   40.3050   35.9970 H     203  SGN203      0.0000
   3259 H         -31.6550   39.9240   35.5250 H     203  SGN203      0.0000
   3260 H         -31.8360   41.2000   37.9200 H     203  SGN203      0.0000
   3261 H         -30.8610   41.7680   37.0580 H     203  SGN203      0.0000
   3262 H         -32.0750   41.6900   36.7670 H     203  SGN203      0.0000
   3263 H         -30.8370   41.8530   37.0260 H     203  SGN203      0.0000
   3264 H         -30.4880   40.9050   38.4350 H     203  SGN203      0.0000
   3265 H         -31.4810   41.5990   36.9640 H     203  SGN203      0.0000
   3266 H         -31.2600   41.9610   36.7660 H     203  SGN203      0.0000
   3267 H         -31.6420   41.9050   36.8960 H     203  SGN203      0.0000
   3268 H         -30.1620   41.5500   37.5270 H     203  SGN203      0.0000
   3269 H         -30.2880   40.3780   38.2180 H     203  SGN203      0.0000
   3270 H         -23.0912   31.4222   34.8167 H     201  LVZ201      0.2562
   3271 H         -24.7563   30.0094   34.4679 H     201  LVZ201      0.2562
   3272 H         -22.3805   30.8060   35.5731 H     201  LVZ201      0.2562
   3273 H         -22.4392   29.8954   35.3221 H     201  LVZ201      0.2563
   3274 H         -23.0338   31.2441   35.6837 H     201  LVZ201      0.2563
   3275 H         -22.3570   29.6050   34.2370 H     201  LVZ201      0.2052
   3276 H         -23.6503   30.2207   33.5608 H     201  LVZ201      0.2052
   3277 H         -22.9380   30.7270   34.6780 H     201  LVZ201      0.2052
   3278 H         -24.2313   29.8589   34.3904 H     201  LVZ201      0.2052
   3279 H         -21.3240   30.3890   33.2660 H     201  LVZ201      0.2052
   3280 H         -22.6173   29.7833   32.5808 H     201  LVZ201      0.2052
   3281 H         -21.4900   31.9220   33.8910 H     201  LVZ201      0.2052
   3282 H         -22.7833   31.2963   34.5580 H     201  LVZ201      0.2052
   3283 H         -32.5190   40.1490   39.1140 H     203  SGN203      0.0000
   3284 H         -33.1300   40.3100   39.0800 H     203  SGN203      0.0000
   3285 H         -33.3700   39.9380   39.2480 H     203  SGN203      0.0000
   3286 H         -33.3150   39.3610   40.2810 H     203  SGN203      0.0000
   3287 H         -30.4900   38.7650   38.2260 H     203  SGN203      0.0000
   3288 H         -30.5500   38.9770   37.6410 H     203  SGN203      0.0000
   3289 H         -31.0090   38.6940   37.6560 H     203  SGN203      0.0000
   3290 H         -30.4200   39.0480   37.6340 H     203  SGN203      0.0000
   3291 H         -30.5820   38.9400   37.9690 H     203  SGN203      0.0000
   3292 H         -30.7800   39.4050   37.9230 H     203  SGN203      0.0000
   3293 H         -29.9950   38.8120   37.5920 H     203  SGN203      0.0000
   3294 H         -30.2690   39.2370   38.0490 H     203  SGN203      0.0000
   3295 H         -30.1470   39.0410   37.7550 H     203  SGN203      0.0000
   3296 H         -30.6330   39.4600   37.9270 H     203  SGN203      0.0000
   3297 H         -30.6110   37.8850   38.2300 H     203  SGN203      0.0000
   3298 H         -30.8710   39.0650   38.3120 H     203  SGN203      0.0000
   3299 H         -30.3133   35.5887   32.0940 H     202  IDS202      0.2563
   3300 H         -29.1386   36.6937   33.6980 H     202  IDS202      0.2052
   3301 H         -29.7827   36.5433   33.6436 H     202  IDS202      0.2052
   3302 H         -28.7085   35.9921   32.6284 H     202  IDS202      0.2562
   3303 H         -30.9978   36.0832   33.2480 H     202  IDS202      0.2562
   3304 H         -31.5053   34.9358   32.9571 H     202  IDS202      0.2562
   3305 H         -30.1530   36.4200   31.6630 H     202  IDS202      0.0000
   3306 H         -29.9680   35.8700   31.7970 H     202  IDS202      0.0000
   3307 H         -28.7600   37.9170   32.7420 H     202  IDS202      0.0000
   3308 H         -31.1340   35.4330   33.3460 H     202  IDS202      0.0000
   3309 H         -29.6470   36.5610   32.0850 H     202  IDS202      0.0000
   3310 H         -28.5100   36.2790   32.2780 H     202  IDS202      0.0000
   3311 H         -31.1570   35.4160   33.3730 H     202  IDS202      0.0000
   3312 H         -25.8450   32.4900   33.5160 H     201  LVZ201      0.0000
   3313 H         -26.1820   32.7890   32.9970 H     201  LVZ201      0.0000
   3314 H         -26.0270   32.5870   33.5440 H     201  LVZ201      0.0000
   3315 H         -26.0040   32.4670   33.5520 H     201  LVZ201      0.0000
   3316 H         -25.6020   32.4130   33.2280 H     201  LVZ201      0.0000
   3317 H         -25.3400   32.6120   33.5560 H     201  LVZ201      0.0000
   3318 H         -26.2080   32.7980   33.3040 H     201  LVZ201      0.0000
   3319 H         -25.7770   32.7110   33.5530 H     201  LVZ201      0.0000
   3320 H         -26.7940   32.4610   33.3610 H     201  LVZ201      0.0000
   3321 H         -25.9440   32.4550   33.5700 H     201  LVZ201      0.0000
   3322 H         -25.1330   32.4860   33.5180 H     201  LVZ201      0.0000
   3323 H         -24.9740   26.9280   32.6880 H     201  LVZ201      0.0000
   3324 H         -26.0630   26.2180   32.9700 H     201  LVZ201      0.0000
   3325 H         -25.3540   26.2590   32.9060 H     201  LVZ201      0.0000
   3326 H         -25.6120   26.6040   32.9360 H     201  LVZ201      0.0000
   3327 H         -25.9630   25.9620   33.0000 H     201  LVZ201      0.0000
   3328 H         -29.4620   28.1290   32.8180 H     201  LVZ201      0.0000
   3329 H         -29.0120   27.0760   33.2040 H     201  LVZ201      0.0000
   3330 H         -27.5060   26.5340   32.6220 H     201  LVZ201      0.0000
   3331 H         -26.6270   28.3140   33.0600 H     201  LVZ201      0.0000
   3332 H         -27.4970   26.5410   33.1960 H     201  LVZ201      0.0000
   3333 H         -25.1450   27.0770   35.2800 H     201  LVZ201      0.0000
   3334 H         -30.7941   28.0372   40.1417 H     201  LVZ201      0.2439
   3335 H         -29.0621   26.9363   39.4214 H     201  LVZ201      0.2563
   3336 H         -29.0970   27.1660   39.2520 H     201  LVZ201      0.2052
   3337 H         -30.3903   27.8353   39.8752 H     201  LVZ201      0.2052
   3338 H         -27.3506   29.7330   39.0514 H     201  LVZ201      0.2563
   3339 H         -30.7472   26.5167   40.0713 H     201  LVZ201      0.2563
   3340 H         -28.9466   26.9648   40.5445 H     201  LVZ201      0.2563
   3341 H         -29.5603   25.8485   39.3558 H     201  LVZ201      0.2563
   3342 H         -28.4940   27.3220   39.9300 H     201  LVZ201      0.2052
   3343 H         -29.7873   28.1039   39.4556 H     201  LVZ201      0.2052
   3344 H         -23.0678   32.2406   33.5009 H     201  LVZ201      0.1149
   3345 H         -21.9770   31.0130   33.5150 H     201  LVZ201      0.0980
   3346 H         -23.7903   29.9222   32.8410 H     201  LVZ201      0.0980
   3347 H         -22.7209   29.4678   32.6732 H     201  LVZ201      0.1148
   3348 H         -24.7311   29.4283   32.4728 H     201  LVZ201      0.1148
   3349 H         -24.7802   31.3065   32.0432 H     201  LVZ201      0.1148
   3350 H         -24.6214   32.8643   33.8465 H     201  LVZ201      0.1367
   3351 H         -34.9600   38.3430   37.3840 H     203  SGN203      0.0000
   3352 H         -35.5140   39.0470   36.8380 H     203  SGN203      0.0000
   3353 H         -35.1820   38.2480   36.9270 H     203  SGN203      0.0000
   3354 H         -34.6360   39.0560   36.8440 H     203  SGN203      0.0000
   3355 H         -35.1100   38.3000   35.6590 H     203  SGN203      0.0000
   3356 H         -35.2420   38.9620   36.8710 H     203  SGN203      0.0000
   3357 H         -35.3050   39.0800   37.2110 H     203  SGN203      0.0000
   3358 H         -34.9650   37.2370   38.1110 H     203  SGN203      0.0000
   3359 H         -34.7300   38.0380   39.3350 H     203  SGN203      0.0000
   3360 H         -34.5540   38.3490   39.2020 H     203  SGN203      0.0000
   3361 H         -25.7990   26.5250   35.4310 H     201  LVZ201      0.0000
   3362 H         -25.4640   26.3830   35.6630 H     201  LVZ201      0.0000
   3363 H         -25.9980   27.0550   35.3250 H     201  LVZ201      0.0000
   3364 H         -26.4990   26.3640   35.2760 H     201  LVZ201      0.0000
   3365 H         -24.9710   27.3750   33.8710 H     201  LVZ201      0.0000
   3366 H         -26.5790   26.5080   35.3420 H     201  LVZ201      0.0000
   3367 H         -27.0830   41.1230   34.2680 H     203  SGN203      0.2052
   3368 H         -28.3763   42.0355   34.2073 H     203  SGN203      0.2052
   3369 H         -27.3710   40.5370   34.5130 H     203  SGN203      0.2052
   3370 H         -28.6643   41.0645   35.2601 H     203  SGN203      0.2052
   3371 H         -29.4447   41.6816   32.9419 H     203  SGN203      0.2563
   3372 H         -27.9085   40.3062   35.2049 H     203  SGN203      0.2563
   3373 H         -27.8621   42.4934   34.3238 H     203  SGN203      0.2562
   3374 H         -28.2477   40.1412   34.5255 H     203  SGN203      0.2562
   3375 H         -27.7210   41.4260   34.8300 H     203  SGN203      0.2052
   3376 H         -29.0143   41.6693   33.9484 H     203  SGN203      0.2052
   3377 H         -27.5452   40.8377   34.6515 H     203  SGN203      0.2544
   3378 H         -31.7020   42.2973   34.6974 H     203  SGN203      0.2562
   3379 H         -30.6055   39.2132   34.9703 H     203  SGN203      0.1148
   3380 H         -29.3160   41.7401   35.1165 H     203  SGN203      0.1148
   3381 H         -29.2599   41.3192   35.5656 H     203  SGN203      0.1137
   3382 H         -28.3378   39.2764   33.7013 H     203  SGN203      0.1367
   3383 H         -27.1430   39.9070   34.4330 H     203  SGN203      0.0980
   3384 H         -28.9563   38.8237   35.1189 H     203  SGN203      0.0980
   3385 H         -29.3131   40.2508   32.8724 H     203  SGN203      0.1137
   3386 H         -28.0450   40.6680   34.1990 H     203  SGN203      0.0980
   3387 H         -29.8583   39.4033   34.4105 H     203  SGN203      0.0980
   3388 H         -27.8470   40.5630   34.1870 H     203  SGN203      0.0980
   3389 H         -29.6603   40.1841   32.9620 H     203  SGN203      0.0980
   3390 H         -29.2977   41.9010   34.0737 H     203  SGN203      0.1148
   3391 H         -29.0498   39.0002   34.8966 H     203  SGN203      0.1148
   3392 H         -31.1167   41.1207   33.9934 H     203  SGN203      0.1148
   3393 H         -25.9630   28.2890   36.9930 H     201  LVZ201      0.0000
   3394 H         -25.8440   28.3700   36.8250 H     201  LVZ201      0.0000
   3395 H         -25.8550   28.4390   36.9390 H     201  LVZ201      0.0000
   3396 H         -25.3590   28.3830   37.0950 H     201  LVZ201      0.0000
   3397 H         -26.7680   27.8810   36.5020 H     201  LVZ201      0.0000
   3398 H         -26.5100   28.4060   36.8640 H     201  LVZ201      0.0000
   3399 H         -25.5680   27.7830   36.4810 H     201  LVZ201      0.0000
   3400 H         -25.7990   28.1170   36.7140 H     201  LVZ201      0.0000
@<TRIPOS>BOND
     1     1   221    1
     2    21   221    1
     3    41   461    1
     4    41  1541    1
     5    61   801    1
     6    61  1641    1
     7    61   181    1
     8    61   401    1
     9    81   941    1
    10    81   481    1
    11   101  1201    1
    12   121   961    1
    13   141   661    1
    14   141   581    1
    15   141   901    1
    16   161  1241    1
    17   201   461    1
    18   221   801    1
    19   221   501    1
    20   241  1761    1
    21   261  1421    1
    22   281   861    1
    23   301  1681    1
    24   321   421    1
    25   321   341    1
    26   321  1101    1
    27   361  1001    1
    28   361   581    1
    29   361   701    1
    30   361  1781    1
    31   381   981    1
    32   421   941    1
    33   421   541    1
    34   421  1041    1
    35   441  1321    1
    36   461   781    1
    37   461   681    1
    38   481  1181    1
    39   481  1301    1
    40   481  1021    1
    41   521  1281    1
    42   541   861    1
    43   561  1681    1
    44   561  1421    1
    45   581  1221    1
    46   581   761    1
    47   601  1681    1
    48   621   941    1
    49   641  1121    1
    50   641   961    1
    51   661  1141    1
    52   661  1261    1
    53   661  1661    1
    54   681  1121    1
    55   681  1301    1
    56   681  1361    1
    57   701  1321    1
    58   721  1221    1
    59   741   961    1
    60   781  1181    1
    61   781  1061    1
    62   781  1561    1
    63   801  1001    1
    64   801  1721    1
    65   821  1201    1
    66   841   961    1
    67   861   921    1
    68   861  1081    1
    69   881  1081    1
    70   881  1201    1
    71   921  1281    1
    72   941  1241    1
    73   981  1181    1
    74   981  1761    1
    75  1061  1501    1
    76  1081  1241    1
    77  1081  1341    1
    78  1121  1701    1
    79  1121  1381    1
    80  1161  1401    1
    81  1181  1481    1
    82  1201  1461    1
    83  1221  1401    1
    84  1221  1281    1
    85  1241  1581    1
    86  1281  1321    1
    87  1321  1421    1
    88  1421  1621    1
    89  1441  1761    1
    90  1521  1681    1
    91  1581  1601    1
    92  1741  1761    1
    93   103  1468    1
    94   103  1478    1
    95  1472  1478    1
    96  1465  1203    1
    97   102   120    2
    98  1462  1203    1
    99  1462   832    1
   100  1467  1470    2
   101  1464  1479    1
   102  1464  1474    1
   103  1476  1211    2
   104   112   110    1
   105   112   105    1
   106   110  1208    1
   107   116  1208    2
   108   101  1216    1
   109  1469   107    2
   110  1479  1480    1
   111  1466  1473    1
   112   118   837    1
   113  1208   838    2
   114  1208   833    1
   115   117   104    1
   116   117  1210    1
   117  1212  1218    1
   118   828   822    1
   119  1474  1477    1
   120  1477  1473    1
   121   114   119    2
   122  1216   115    1
   123  1202   837    1
   124   830   826    1
   125   830   827    1
   126   115  1217    1
   127  1218  1214    1
   128  1205  1209    3
   129   826   113    1
   130   824   834    1
   131  1480  1475    1
   132  1204  1220    1
   133  1210  1207    2
   134   825   840    2
   135  1201  1220    1
   136   822   829    1
   137   611  1691    2
   138   834   839    1
   139  1475  1610    1
   140  1217  1219    1
   141  1214  1220    1
   142   111  1213    2
   143  1220  1215    1
   144  1219   883    2
   145   610   613    2
   146   311   620    2
   147   616   605    1
   148   616   607    1
   149   418    76    1
   150   614  1683    2
   151  1613  1588    1
   152   619   563    1
   153   619  1691    1
   154   319   318    1
   155   319   314    1
   156   602   615    1
   157   602   606    1
   158  1471  1211    2
   159   563   571    1
   160   604   612    1
   161   604   601    1
   162  1588  1590    1
   163  1618  1582    1
   164  1611  1590    1
   165  1691  1531    1
   166   313   309    1
   167   608   606    1
   168   309   316    1
   169    76  1644    1
   170    76    78    1
   171  1583  1594    2
   172   607   609    1
   173  1608  1587    1
   174   307   310    1
   175  1584  1582    1
   176  1584  1598    1
   177   615  1696    1
   178  1617  1586    1
   179   314   320    1
   180  1211   831    2
   181   896   890    1
   182  1605  1592    1
   183  1612  1606    1
   184  1585  1589    1
   185    71   200    1
   186    71    39    1
   187  1652    67    1
   188  1602  1615    1
   189   189    63    1
   190  1591  1596    1
   191   884   900    1
   192   617  1539    1
   193    78    63    1
   194  1693  1684    1
   195   415    64    1
   196   310   305    1
   197  1640  1440    1
   198  1636  1423    1
   199  1592  1597    1
   200   568   576    1
   201   568   566    1
   202  1699  1694    1
   203  1699  1692    1
   204   245  1458    2
   205   887   893    2
   206  1698  1687    2
   207   576   570    1
   208  1596  1593    1
   209  1654  1653    1
   210   573   577    1
   211   889   897    1
   212   889   894    1
   213   312   305    1
   214   312  1700    1
   215  1690  1684    1
   216   413    66    1
   217   572   575    1
   218  1696  1539    1
   219   890   886    1
   220  1352  1083    1
   221  1628  1423    1
   222   409    75    1
   223  1660  1650    1
   224   317   315    2
   225   243   254    1
   226  1589  1599    1
   227    12   239    1
   228   897   894    1
   229  1350  1088    1
   230  1694  1695    1
   231   565   570    1
   232   565   577    1
   233   899   900    1
   234   899  1087    1
   235   564   567    2
   236    64    69    1
   237  1347  1085    1
   238    27   232    1
   239   188    80    1
   240   302   306    2
   241  1649  1738    1
   242  1687  1684    1
   243  1687  1688    1
   244   414    68    1
   245  1685  1692    1
   246  1685  1523    2
   247  1597  1243    1
   248   251   247    2
   249   420    69    1
   250  1692  1682    1
   251   248  1445    2
   252   406    62    1
   253    66    67    1
   254    66    68    1
   255  1454  1451    1
   256   252  1449    2
   257    62   408    1
   258    62    77    2
   259   895  1086    2
   260   246   253    1
   261   246   256    1
   262  1448  1453    2
   263  1645    72    1
   264  1082  1357    1
   265  1082  1098    1
   266  1681  1695    1
   267   254   255    1
   268   574   569    1
   269   574  1428    1
   270  1689  1695    1
   271  1689  1697    1
   272   575  1436    1
   273  1353  1096    1
   274    69    74    1
   275  1248  1250    2
   276  1695  1697    1
   277    75   239    1
   278   253   256    1
   279  1351  1090    1
   280   239    33    1
   281   239   811    1
   282     6   232    1
   283  1092  1085    1
   284  1092  1094    1
   285   402  1531    1
   286  1243  1244    1
   287  1243  1245    1
   288   255   257    1
   289  1635  1639    1
   290   241  1460    1
   291    68    70    2
   292  1084  1085    1
   293  1460   259    1
   294   419    73    1
   295  1599  1595    1
   296   505   227    1
   297  1443  1447    2
   298  1436  1431    1
   299    73   194    1
   300  1428  1426    1
   301    17   232    1
   302  1451  1455    1
   303  1595  1600    1
   304    72   816    1
   305    72   818    1
   306  1098  1094    1
   307  1086  1097    1
   308   259   257    1
   309  1242  1254    1
   310  1242  1249    1
   311  1250  1251    1
   312  1244  1258    1
   313  1450  1745    1
   314  1450  1446    1
   315  1765  1763    1
   316  1765  1764    1
   317  1600  1620    1
   318  1631  1432    1
   319   199   236    1
   320   816    79    1
   321  1629  1432    1
   322    22   236    1
   323  1432  1434    1
   324  1432  1425    1
   325  1094  1256    1
   326  1089  1097    1
   327  1089  1099    1
   328  1089  1100    1
   329   263  1433    1
   330     2   233    1
   331  1245  1252    1
   332  1252   162    1
   333  1252  1254    1
   334  1252  1253    1
   335   169  1246    1
   336   458  1336    1
   337  1097  1100    1
   338  1763  1766    1
   339  1455  1442    1
   340  1431  1425    1
   341  1424  1433    1
   342  1424  1435    1
   343  1247   174    1
   344  1247  1251    1
   345  1256  1093    1
   346  1256  1095    1
   347  1093  1091    2
   348  1768   258    1
   349   410    65    1
   350  1360  1099    1
   351  1770  1767    3
   352  1731   807    1
   353  1774  1764    1
   354  1774  1772    2
   355  1258   948    1
   356  1422  1429    3
   357  1425  1427    1
   358  1249  1257    1
   359   178  1246    1
   360  1446  1459    1
   361  1533  1536    1
   362  1533  1527    1
   363  1427  1438    1
   364  1630  1439    1
   365  1099  1100    1
   366  1099  1095    1
   367   453  1323    1
   368   580   268    1
   369   580   271    1
   370   405   238    1
   371   578   579    1
   372  1251  1257    1
   373  1323  1324    1
   374  1029   488    1
   375  1750  1751    1
   376   237   226    1
   377   237   225    1
   378   260  1755    1
   379   260   258    1
   380  1753  1751    1
   381  1748  1749    2
   382  1534  1535    2
   383  1036   490    1
   384  1755  1752    1
   385   923   924    1
   386   579   270    1
   387   512   231    1
   388    79   802    1
   389    65  1724    1
   390  1536  1528    1
   391    30   231    1
   392   233   234    2
   393   628   944    1
   394  1754  1747    2
   395  1459  1457    1
   396   236     4    1
   397   226    31    1
   398   928   926    1
   399  1775  1780    1
   400  1438   273    1
   401  1336  1340    1
   402   222     3    1
   403   922   936    1
   404   922   924    1
   405  1780  1762    1
   406   862   878    1
   407   862   864    1
   408  1328  1326    2
   409  1746  1752    1
   410  1525  1524    1
   411  1439   272    1
   412  1439   264    1
   413  1760  1758    1
   414   807   819    1
   415  1759  1741    1
   416  1037   491    1
   417   926   930    1
   418   812   813    1
   419   812   814    1
   420  1326  1333    1
   421   819   809    1
   422   932   937    1
   423   932   934    1
   424  1524  1522    1
   425   238  1722    1
   426   927   933    2
   427  1742  1756    2
   428  1778  1761    1
   429  1778  1488    1
   430   802  1723    1
   431  1779  1777    1
   432  1779  1776    1
   433   806   813    1
   434  1527  1529    1
   435   948   951    1
   436   948   956    2
   437  1259   947    1
   438  1327  1340    1
   439   804  1735    1
   440   804   809    1
   441   625   944    1
   442  1521  1537    1
   443   925   938    1
   444   632   944    1
   445   231    29    1
   446   872   866    1
   447  1255   951    2
   448   938   940    1
   449   950  1260    3
   450  1016   813    1
   451   865   877    1
   452   944   942    1
   453   878   870    2
   454  1035   487    1
   455  1338  1333    1
   456  1308  1039    1
   457  1308  1310    1
   458  1526  1537    1
   459   864   874    1
   460   490   493    1
   461   490   489    2
   462  1333  1335    1
   463  1333  1329    1
   464   520   517    1
   465   867   877    1
   466   867   294    1
   467   930   931    1
   468  1758  1456    1
   469  1337  1339    3
   470   943   947    1
   471   943   954    1
   472  1311  1303    2
   473   815   820    2
   474  1334  1288    2
   475   820  1739    1
   476   866   873    1
   477   942   958    1
   478   946   945    1
   479   946   953    1
   480   757   758    1
   481   951   949    1
   482   175    88    1
   483   504   230    1
   484   284   871    1
   485  1494  1499    1
   486   510   502    1
   487  1007  1018    1
   488  1007  1017    1
   489  1011  1015    1
   490  1011  1014    1
   491   808  1727    1
   492   808   810    1
   493   808  1737    1
   494    13   240    1
   495   494   487    1
   496  1018  1017    1
   497  1396  1391    1
   498   952   949    1
   499  1040   498    1
   500   945   957    1
   501  1310  1307    1
   502   716   720    1
   503   940   929    1
   504   869   880    3
   505   874   879    1
   506   874   875    1
   507  1330   712    1
   508   485   492    1
   509   485   482    1
   510  1012  1019    1
   511  1012  1020    1
   512   230   228    1
   513  1307  1312    1
   514   240   235    1
   515   229   506    1
   516  1006  1003    1
   517  1003  1005    1
   518   224   223    3
   519   486   493    1
   520   486   497    1
   521  1288  1286    1
   522   879   873    1
   523   879   875    1
   524  1316  1318    1
   525  1313  1305    1
   526   712   707    1
   527   958   957    1
   528   985   991    1
   529   985   984    1
   530  1309   482    2
   531   939   935    2
   532   953    96    1
   533   873   295    1
   534  1389  1128    1
   535  1292  1284    3
   536   758   756    1
   537   390   988    1
   538   857   858    1
   539   711   720    1
   540  1312  1302    1
   541  1004  1009    1
   542  1004  1010    1
   543   990   983    2
   544  1306  1318    1
   545   708   702    2
   546  1052   424    1
   547  1282  1287    1
   548  1191  1496    1
   549  1191  1186    1
   550   983   986    1
   551   704   713    1
   552   704   715    1
   553  1286  1285    1
   554   871   556    2
   555   988   993    1
   556   988   989    1
   557  1305  1302    1
   558   498   497    1
   559   853   852    2
   560   957   959    1
   561   957   960    1
   562   991   995    1
   563   991  1000    1
   564   984   982    1
   565    90    91    1
   566  1188  1189    1
   567  1188   998    1
   568   858   856    1
   569  1733  1734    1
   570  1287  1291    1
   571  1015  1014    1
   572   994   993    2
   573  1390  1136    1
   574   543   875    1
   575  1183  1194    3
   576  1184  1185    1
   577  1184  1187    1
   578  1184  1198    1
   579  1005  1020    1
   580  1185  1190    1
   581  1185  1193    2
   582   714   717    1
   583    83    94    2
   584   497   499    1
   585   875   548    1
   586  1710  1133    1
   587   717   718    1
   588  1383  1134    1
   589  1013  1009    1
   590  1285  1289    1
   591  1386  1131    1
   592   428   544    2
   593   422   425    2
   594  1053   436    1
   595   715   719    1
   596   542   545    1
   597   719   709    1
   598  1192  1195    1
   599  1500  1187    1
   600    91    89    1
   601   430   423    3
   602   654   653    1
   603  1128  1131    1
   604  1128  1130    1
   605   986   999    1
   606   738  1236    1
   607   640   959    1
   608   511   515    1
   609    82    85    1
   610   376   378    1
   611    86    97    1
   612  1297  1290    1
   613  1297  1295    1
   614  1297  1299    1
   615    85    93    1
   616  1293  1295    1
   617  1293  1289    1
   618  1293   524    1
   619  1300  1299    1
   620  1300   536    1
   621  1186  1198    1
   622   643  1136    1
   623   653   652    1
   624  1189   998    1
   625  1189   997    1
   626   363   379    1
   627   427   433    1
   628  1294  1295    1
   629   998   999    1
   630   977   978    1
   631   977   849    1
   632   495  1198    1
   633   989   394    1
   634   989   393    1
   635   843   978    1
   636   843   854    1
   637   431   433    1
   638   850   748    1
   639   755   753    2
   640   432   425    1
   641   432   434    1
   642  1000   997    1
   643   959   955    1
   644   959   960    1
   645  1730  1725    1
   646   955    98    1
   647   648  1136    1
   648   436   438    1
   649   552   549    2
   650   395   996    1
   651  1222   733    1
   652  1222  1223    1
   653  1222  1228    1
   654  1222  1224    1
   655    98    97    1
   656   372   371    1
   657   372   374    1
   658   550   547    2
   659   371   374    1
   660  1182  1197    1
   661  1131  1136    1
   662   367   362    1
   663   367   365    1
   664  1133  1134    1
   665  1133  1385    1
   666  1133  1132    1
   667   545   557    1
   668   688   690    1
   669   978   849    1
   670   378   379    1
   671   378   380    1
   672   378  1783    1
   673  1232   731    1
   674  1232  1225    1
   675  1232  1234    1
   676   366   365    1
   677  1299   522    1
   678  1228  1226    1
   679  1228  1238    1
   680  1130  1127    1
   681   558   553    1
   682  1315   693    2
   683  1226  1224    1
   684   362   368    1
   685   362   373    1
   686  1134  1132    1
   687   691   683    1
   688   691   690    1
   689   438   437    1
   690  1124  1123    2
   691  1124  1397    1
   692   859   963    1
   693   859   860    1
   694   377  1792    1
   695  1195  1200    1
   696  1197  1200    1
   697   657   656    1
   698   379   374    1
   699  1127  1138    1
   700  1127  1126    1
   701   656   968    1
   702  1227  1233    1
   703   368  1787    1
   704   748   973    1
   705   973   974    1
   706   380   369    2
   707  1129   684    3
   708   551   553    1
   709   557   560    1
   710   375   365    1
   711   375   596    1
   712  1200   788    1
   713   694   693    1
   714   690   686    1
   715   740  1237    1
   716   851   972    1
   717   851   754    1
   718   437   439    1
   719   437   440    1
   720   693   689    1
   721  1224  1231    1
   722  1238  1237    1
   723  1238  1231    1
   724  1238  1240    1
   725   696  1371    1
   726  1225  1234    1
   727  1132  1708    1
   728   687  1319    1
   729   687   685    1
   730   735  1234    1
   731   208   473    1
   732   559   555    1
   733  1230  1233    1
   734  1230  1229    1
   735    95    99    2
   736   647   645    1
   737   647   642    1
   738  1320  1369    1
   739   963   976    1
   740  1237  1239    1
   741   350   351    1
   742   350   346    1
   743  1055   326    1
   744   644   974    2
   745   860   968    1
   746   351   344    1
   747  1716  1138    1
   748   974   969    1
   749  1138  1122    1
   750  1233  1229    1
   751  1233  1240    1
   752  1126  1137    1
   753   692   686    1
   754  1800  1799    1
   755  1402  1412    1
   756  1176  1408    1
   757  1797  1794    1
   758   791   785    1
   759   791   787    1
   760   686  1363    1
   761   685  1373    1
   762   645   642    1
   763   471   473    1
   764   210   474    1
   765  1515  1519    1
   766   555   440    1
   767   592   597    3
   768   698  1374    1
   769   968   646    2
   770   330   328    1
   771   330   323    1
   772   330   325    1
   773   206   474    1
   774  1367  1377    1
   775   324   345    1
   776  1376   354    1
   777   749   975    1
   778   749   750    1
   779   586   598    1
   780   586   585    1
   781  1235  1416    2
   782   784   798    1
   783   435   332    1
   784  1793  1789    1
   785   783   789    1
   786   783   786    1
   787  1408  1403    1
   788   326   331    1
   789   326   332    1
   790   587   584    1
   791   587   594    1
   792   328   327    1
   793   331   348    1
   794   331   332    1
   795  1137   649    1
   796   588   584    1
   797   588   600    1
   798  1506  1065    1
   799   463   474    1
   800  1406  1418    1
   801  1406  1405    1
   802   848   847    1
   803   216   695    1
   804   348   347    1
   805   473   465    1
   806   137   855    1
   807   137   741    1
   808   469   470    1
   809   469   472    1
   810   469   465    1
   811  1785  1790    1
   812   682  1372    1
   813   855   138    1
   814   787   786    1
   815   347   345    1
   816  1412  1414    1
   817   970   969    1
   818   584   593    1
   819   584   600    1
   820   975  1718    1
   821   975   971    1
   822   649   651    1
   823   472   475    1
   824   467   465    1
   825   467   466    1
   826   327   333    1
   827   342   352    2
   828   323   325    1
   829  1407  1410    1
   830   465   466    1
   831  1065  1068    1
   832   750   751    1
   833   786   798    1
   834   343   334    1
   835   343   353    1
   836   650   651    1
   837   650   655    1
   838   919   920    1
   839  1518  1071    1
   840   599   595    1
   841   599   589    1
   842   599   762    1
   843   325   333    1
   844   332   329    1
   845  1712  1135    1
   846   913   146    1
   847   908   156    1
   848  1410  1417    1
   849  1073  1080    1
   850   334   353    1
   851  1067  1504    1
   852  1706  1135    1
   853  1068  1069    1
   854   593   600    1
   855  1072  1063    2
   856   798   797    1
   857  1071   795    1
   858  1404  1413    1
   859  1571   782    1
   860  1366  1378    1
   861   466   478    1
   862   476   700    2
   863   336   338    1
   864  1365  1362    1
   865   138   844    1
   866   146   143    1
   867   146   150    1
   868  1414  1409    1
   869   142   909    1
   870   142   158    2
   871   782  1574    1
   872  1074  1079    1
   873   478   462    1
   874   478  1375    1
   875  1066  1062    2
   876   655  1702    1
   877   152   159    1
   878   152   154    1
   879   796  1578    1
   880   841   847    1
   881  1413  1411    1
   882   979   123    2
   883   143   153    1
   884   147   150    1
   885  1180  1419    1
   886   133   964    1
   887   338   337    1
   888   338  1106    1
   889   356   358    2
   890   915   150    1
   891   462    48    1
   892   157   145    1
   893  1080  1505    1
   894  1171  1415    1
   895  1517  1520    1
   896   800  1572    1
   897   148   144    1
   898   148   160    1
   899   845   846    2
   900   799  1078    1
   901   799  1076    1
   902  1411  1415    1
   903  1705  1139    1
   904   357   349    1
   905   357  1104    1
   906   747   139    1
   907   150   144    1
   908   159   154    1
   909   159   149    1
   910   751   744    1
   911   134   964    1
   912   134   128    1
   913  1079  1508    1
   914  1108  1103    1
   915   700  1548    1
   916  1078  1077    1
   917  1110  1107    1
   918  1102  1106    1
   919  1102  1103    1
   920   151   155    3
   921  1420  1419    1
   922   132   139    1
   923   145   160    1
   924   699    56    2
   925   980   966    3
   926   219    52    1
   927   779   780    1
   928  1104   359    1
   929  1111  1114    1
   930   965   962    3
   931  1551  1715    1
   932  1278  1266    1
   933  1278  1280    1
   934   773   769    1
   935  1267  1262    2
   936   659   128    1
   937   659   660    1
   938   964   760    1
   939   964   746    1
   940   775   770    1
   941   341   355    1
   942    48    50    1
   943  1107  1113    1
   944  1076  1575    1
   945   135   744    1
   946  1112  1105    1
   947  1112  1109    1
   948  1266  1280    1
   949   480    49    1
   950  1116  1118    1
   951  1116  1120    1
   952   130   745    2
   953   479  1553    1
   954  1105   340    1
   955    53    43    1
   956    53    49    1
   957    52  1549    1
   958   129   742    2
   959    43    50    1
   960  1580  1579    1
   961  1276  1277    2
   962   660   124    1
   963  1114   360    1
   964   760   746    1
   965    47    54    1
   966    47    46    1
   967    54  1544    1
   968  1550    58    1
   969  1263  1272    1
   970  1263  1264    1
   971  1113  1117    1
   972  1272  1273    1
   973   667   672    2
   974   667   677    1
   975   359   360    1
   976   678  1274    1
   977   678   679    1
   978  1109  1101    1
   979  1265  1269    1
   980  1274  1270    1
   981  1117  1119    1
   982   676   677    1
   983    46    58    1
   984  1275  1268    1
   985   124   127    1
   986   663   664    1
   987   127   126    1
   988  1547    55    1
   989  1554    55    1
   990   677   664    1
   991  1268  1269    1
   992   679   674    1
   993   679   673    1
   994  1119  1120    1
   995    42    57    1
   996    42  1558    1
   997  1552    59    1
   998   125   122    2
   999   668   665    1
  1000  1676  1662    1
  1001   665   680    1
  1002   665   669    1
  1003   674   675    1
  1004   680  1270    1
  1005  1667  1663    1
  1006  1667  1671    1
  1007   670   669    1
  1008  1556  1557    1
  1009  1662  1679    1
  1010  1670  1671    1
  1011  1672  1665    1
  1012  1672  1674    1
  1013  1663  1664    1
  1014  1677  1673    2
  1015  1679  1678    1
  1016  1678  1664    1
  1017  1542    60    1
  1018  1147  1156    2
  1019  1142  1159    1
  1020  1555  1560    1
  1021  1146  1157    2
  1022  1668  1144    1
  1023  1143  1153    1
  1024  1152  1154    1
  1025  1674  1669    1
  1026  1675  1669    1
  1027  1144  1155    1
  1028  1154  1155    1
  1029  1151  1160    2
  1030  1159  1145    1
  1031  1145  1149    1
  1032  1153  1149    1
  1033     5  1801    1
  1034     7  1802    1
  1035     8  1803    1
  1036     9  1804    1
  1037    10  1805    1
  1038    11  1806    1
  1039    14  1807    1
  1040    15  1808    1
  1041    16  1809    1
  1042    18  1810    1
  1043    19  1811    1
  1044    20  1812    1
  1045    23  1813    1
  1046    24  1814    1
  1047    25  1815    1
  1048    26  1816    1
  1049    28  1817    1
  1050    32  1818    1
  1051    34  1819    1
  1052    35  1820    1
  1053    36  1821    1
  1054    37  1822    1
  1055    38  1823    1
  1056    40  1824    1
  1057    44  1825    1
  1058    44  1826    1
  1059    45  1827    1
  1060    45  1828    1
  1061    51  1829    1
  1062    51  1830    1
  1063    57  1831    1
  1064    59  1832    1
  1065    60  1833    1
  1066    63  1834    1
  1067    63  1835    1
  1068    64  1836    1
  1069    64  1837    1
  1070    65  1838    1
  1071    65  1839    1
  1072    66  1840    1
  1073    67  1841    1
  1074    67  1842    1
  1075    69  1843    1
  1076    70  1844    1
  1077    70  1845    1
  1078    71  1846    1
  1079    71  1847    1
  1080    72  1848    1
  1081    73  1849    1
  1082    73  1850    1
  1083    74  1851    1
  1084    74  1852    1
  1085    74  1853    1
  1086    75  1854    1
  1087    75  1855    1
  1088    76  1856    1
  1089    77  1857    1
  1090    77  1858    1
  1091    78  1859    1
  1092    78  1860    1
  1093    79  1861    1
  1094    79  1862    1
  1095    80  1863    1
  1096    80  1864    1
  1097    80  1865    1
  1098    82  1866    1
  1099    84  1867    1
  1100    84  1868    1
  1101    86  1869    1
  1102    87  1870    1
  1103    87  1871    1
  1104    88  1872    1
  1105    89  1873    1
  1106    90  1874    1
  1107    92  1875    1
  1108    92  1876    1
  1109    93  1877    1
  1110    96  1878    1
  1111   100  1879    1
  1112   100  1880    1
  1113   104  1881    1
  1114   105  1882    1
  1115   106  1883    1
  1116   106  1884    1
  1117   108  1885    1
  1118   108  1886    1
  1119   109  1887    1
  1120   109  1888    1
  1121   113  1889    1
  1122   118  1890    1
  1123   121  1891    1
  1124   126  1892    1
  1125   131  1893    1
  1126   131  1894    1
  1127   132  1895    1
  1128   133  1896    1
  1129   135  1897    1
  1130   136  1898    1
  1131   136  1899    1
  1132   140  1900    1
  1133   140  1901    1
  1134   143  1902    1
  1135   144  1903    1
  1136   145  1904    1
  1137   147  1905    1
  1138   147  1906    1
  1139   148  1907    1
  1140   149  1908    1
  1141   149  1909    1
  1142   152  1910    1
  1143   153  1911    1
  1144   153  1912    1
  1145   154  1913    1
  1146   156  1914    1
  1147   156  1915    1
  1148   157  1916    1
  1149   157  1917    1
  1150   158  1918    1
  1151   160  1919    1
  1152   163  1920    1
  1153   164  1921    1
  1154   165  1922    1
  1155   166  1923    1
  1156   167  1924    1
  1157   168  1925    1
  1158   170  1926    1
  1159   171  1927    1
  1160   172  1928    1
  1161   173  1929    1
  1162   176  1930    1
  1163   177  1931    1
  1164   179  1932    1
  1165   180  1933    1
  1166   182  1934    1
  1167   183  1935    1
  1168   184  1936    1
  1169   185  1937    1
  1170   186  1938    1
  1171   187  1939    1
  1172   190  1940    1
  1173   191  1941    1
  1174   192  1942    1
  1175   193  1943    1
  1176   195  1944    1
  1177   196  1945    1
  1178   197  1946    1
  1179   198  1947    1
  1180   202  1948    1
  1181   203  1949    1
  1182   204  1950    1
  1183   205  1951    1
  1184   207  1952    1
  1185   209  1953    1
  1186   211  1954    1
  1187   212  1955    1
  1188   213  1956    1
  1189   214  1957    1
  1190   215  1958    1
  1191   217  1959    1
  1192   218  1960    1
  1193   220  1961    1
  1194   222  1962    1
  1195   222  1963    1
  1196   222  1964    1
  1197   223  1965    1
  1198   224  1966    1
  1199   225  1967    1
  1200   225  1968    1
  1201   225  1969    1
  1202   226  1970    1
  1203   226  1971    1
  1204   227  1972    1
  1205   227  1973    1
  1206   227  1974    1
  1207   228  1975    1
  1208   228  1976    1
  1209   228  1977    1
  1210   229  1978    1
  1211   229  1979    1
  1212   229  1980    1
  1213   230  1981    1
  1214   230  1982    1
  1215   231  1983    1
  1216   232  1984    1
  1217   233  1985    1
  1218   234  1986    1
  1219   234  1987    1
  1220   235  1988    1
  1221   235  1989    1
  1222   235  1990    1
  1223   236  1991    1
  1224   237  1992    1
  1225   237  1993    1
  1226   238  1994    1
  1227   238  1995    1
  1228   240  1996    1
  1229   240  1997    1
  1230   242  1998    1
  1231   242  1999    1
  1232   243  2000    1
  1233   244  2001    1
  1234   244  2002    1
  1235   249  2003    1
  1236   249  2004    1
  1237   250  2005    1
  1238   250  2006    1
  1239   262  2007    1
  1240   265  2008    1
  1241   266  2009    1
  1242   267  2010    1
  1243   269  2011    1
  1244   274  2012    1
  1245   275  2013    1
  1246   276  2014    1
  1247   277  2015    1
  1248   278  2016    1
  1249   279  2017    1
  1250   280  2018    1
  1251   282  2019    1
  1252   283  2020    1
  1253   285  2021    1
  1254   286  2022    1
  1255   287  2023    1
  1256   288  2024    1
  1257   289  2025    1
  1258   290  2026    1
  1259   291  2027    1
  1260   292  2028    1
  1261   293  2029    1
  1262   296  2030    1
  1263   297  2031    1
  1264   298  2032    1
  1265   299  2033    1
  1266   300  2034    1
  1267   301  2035    1
  1268   303  2036    1
  1269   303  2037    1
  1270   304  2038    1
  1271   304  2039    1
  1272   307  2040    1
  1273   308  2041    1
  1274   308  2042    1
  1275   313  2043    1
  1276   316  2044    1
  1277   318  2045    1
  1278   320  2046    1
  1279   321  2047    1
  1280   322  2048    1
  1281   322  2049    1
  1282   322  2050    1
  1283   322  2051    1
  1284   323  2052    1
  1285   323  2053    1
  1286   324  2054    1
  1287   324  2055    1
  1288   324  2056    1
  1289   325  2057    1
  1290   326  2058    1
  1291   327  2059    1
  1292   327  2060    1
  1293   328  2061    1
  1294   328  2062    1
  1295   329  2063    1
  1296   329  2064    1
  1297   329  2065    1
  1298   330  2066    1
  1299   331  2067    1
  1300   333  2068    1
  1301   333  2069    1
  1302   334  2070    1
  1303   334  2071    1
  1304   335  2072    1
  1305   335  2073    1
  1306   335  2074    1
  1307   335  2075    1
  1308   336  2076    1
  1309   336  2077    1
  1310   336  2078    1
  1311   337  2079    1
  1312   337  2080    1
  1313   337  2081    1
  1314   338  2082    1
  1315   339  2083    1
  1316   339  2084    1
  1317   339  2085    1
  1318   339  2086    1
  1319   340  2087    1
  1320   340  2088    1
  1321   340  2089    1
  1322   344  2090    1
  1323   346  2091    1
  1324   349  2092    1
  1325   354  2093    1
  1326   355  2094    1
  1327   362  2095    1
  1328   363  2096    1
  1329   363  2097    1
  1330   363  2098    1
  1331   364  2099    1
  1332   364  2100    1
  1333   364  2101    1
  1334   364  2102    1
  1335   365  2103    1
  1336   366  2104    1
  1337   366  2105    1
  1338   366  2106    1
  1339   367  2107    1
  1340   367  2108    1
  1341   368  2109    1
  1342   368  2110    1
  1343   369  2111    1
  1344   369  2112    1
  1345   370  2113    1
  1346   370  2114    1
  1347   370  2115    1
  1348   370  2116    1
  1349   371  2117    1
  1350   371  2118    1
  1351   372  2119    1
  1352   372  2120    1
  1353   373  2121    1
  1354   373  2122    1
  1355   373  2123    1
  1356   374  2124    1
  1357   375  2125    1
  1358   375  2126    1
  1359   376  2127    1
  1360   376  2128    1
  1361   376  2129    1
  1362   377  2130    1
  1363   377  2131    1
  1364   377  2132    1
  1365   379  2133    1
  1366   380  2134    1
  1367   382  2135    1
  1368   383  2136    1
  1369   384  2137    1
  1370   385  2138    1
  1371   386  2139    1
  1372   387  2140    1
  1373   388  2141    1
  1374   389  2142    1
  1375   391  2143    1
  1376   392  2144    1
  1377   396  2145    1
  1378   397  2146    1
  1379   398  2147    1
  1380   399  2148    1
  1381   400  2149    1
  1382   403  2150    1
  1383   404  2151    1
  1384   407  2152    1
  1385   411  2153    1
  1386   412  2154    1
  1387   416  2155    1
  1388   417  2156    1
  1389   422  2157    1
  1390   422  2158    1
  1391   423  2159    1
  1392   424  2160    1
  1393   424  2161    1
  1394   424  2162    1
  1395   425  2163    1
  1396   426  2164    1
  1397   426  2165    1
  1398   426  2166    1
  1399   426  2167    1
  1400   427  2168    1
  1401   427  2169    1
  1402   427  2170    1
  1403   428  2171    1
  1404   428  2172    1
  1405   429  2173    1
  1406   429  2174    1
  1407   429  2175    1
  1408   429  2176    1
  1409   430  2177    1
  1410   431  2178    1
  1411   431  2179    1
  1412   431  2180    1
  1413   432  2181    1
  1414   432  2182    1
  1415   433  2183    1
  1416   433  2184    1
  1417   434  2185    1
  1418   434  2186    1
  1419   434  2187    1
  1420   435  2188    1
  1421   435  2189    1
  1422   435  2190    1
  1423   436  2191    1
  1424   436  2192    1
  1425   437  2193    1
  1426   438  2194    1
  1427   438  2195    1
  1428   439  2196    1
  1429   439  2197    1
  1430   439  2198    1
  1431   440  2199    1
  1432   440  2200    1
  1433   442  2201    1
  1434   443  2202    1
  1435   444  2203    1
  1436   445  2204    1
  1437   446  2205    1
  1438   447  2206    1
  1439   448  2207    1
  1440   449  2208    1
  1441   450  2209    1
  1442   451  2210    1
  1443   452  2211    1
  1444   454  2212    1
  1445   455  2213    1
  1446   456  2214    1
  1447   457  2215    1
  1448   459  2216    1
  1449   460  2217    1
  1450   462  2218    1
  1451   462  2219    1
  1452   463  2220    1
  1453   463  2221    1
  1454   463  2222    1
  1455   464  2223    1
  1456   464  2224    1
  1457   464  2225    1
  1458   464  2226    1
  1459   466  2227    1
  1460   467  2228    1
  1461   467  2229    1
  1462   468  2230    1
  1463   468  2231    1
  1464   468  2232    1
  1465   468  2233    1
  1466   469  2234    1
  1467   470  2235    1
  1468   470  2236    1
  1469   470  2237    1
  1470   471  2238    1
  1471   471  2239    1
  1472   471  2240    1
  1473   472  2241    1
  1474   472  2242    1
  1475   473  2243    1
  1476   474  2244    1
  1477   475  2245    1
  1478   475  2246    1
  1479   475  2247    1
  1480   476  2248    1
  1481   476  2249    1
  1482   477  2250    1
  1483   477  2251    1
  1484   477  2252    1
  1485   477  2253    1
  1486   478  2254    1
  1487   479  2255    1
  1488   479  2256    1
  1489   479  2257    1
  1490   480  2258    1
  1491   480  2259    1
  1492   480  2260    1
  1493   482  2261    1
  1494   483  2262    1
  1495   483  2263    1
  1496   483  2264    1
  1497   483  2265    1
  1498   484  2266    1
  1499   484  2267    1
  1500   484  2268    1
  1501   484  2269    1
  1502   485  2270    1
  1503   485  2271    1
  1504   486  2272    1
  1505   486  2273    1
  1506   487  2274    1
  1507   487  2275    1
  1508   488  2276    1
  1509   488  2277    1
  1510   488  2278    1
  1511   489  2279    1
  1512   489  2280    1
  1513   491  2281    1
  1514   491  2282    1
  1515   491  2283    1
  1516   492  2284    1
  1517   492  2285    1
  1518   492  2286    1
  1519   493  2287    1
  1520   493  2288    1
  1521   494  2289    1
  1522   494  2290    1
  1523   494  2291    1
  1524   495  2292    1
  1525   495  2293    1
  1526   495  2294    1
  1527   496  2295    1
  1528   496  2296    1
  1529   496  2297    1
  1530   496  2298    1
  1531   497  2299    1
  1532   498  2300    1
  1533   498  2301    1
  1534   499  2302    1
  1535   499  2303    1
  1536   499  2304    1
  1537   500  2305    1
  1538   500  2306    1
  1539   500  2307    1
  1540   500  2308    1
  1541   503  2309    1
  1542   507  2310    1
  1543   508  2311    1
  1544   509  2312    1
  1545   513  2313    1
  1546   514  2314    1
  1547   516  2315    1
  1548   518  2316    1
  1549   519  2317    1
  1550   523  2318    1
  1551   525  2319    1
  1552   526  2320    1
  1553   527  2321    1
  1554   528  2322    1
  1555   529  2323    1
  1556   530  2324    1
  1557   531  2325    1
  1558   532  2326    1
  1559   533  2327    1
  1560   534  2328    1
  1561   535  2329    1
  1562   537  2330    1
  1563   538  2331    1
  1564   539  2332    1
  1565   540  2333    1
  1566   542  2334    1
  1567   543  2335    1
  1568   546  2336    1
  1569   546  2337    1
  1570   548  2338    1
  1571   551  2339    1
  1572   554  2340    1
  1573   554  2341    1
  1574   558  2342    1
  1575   559  2343    1
  1576   560  2344    1
  1577   562  2345    1
  1578   562  2346    1
  1579   566  2347    1
  1580   569  2348    1
  1581   571  2349    1
  1582   572  2350    1
  1583   573  2351    1
  1584   578  2352    1
  1585   582  2353    1
  1586   582  2354    1
  1587   582  2355    1
  1588   582  2356    1
  1589   583  2357    1
  1590   583  2358    1
  1591   583  2359    1
  1592   583  2360    1
  1593   585  2361    1
  1594   585  2362    1
  1595   585  2363    1
  1596   586  2364    1
  1597   586  2365    1
  1598   587  2366    1
  1599   587  2367    1
  1600   588  2368    1
  1601   588  2369    1
  1602   589  2370    1
  1603   589  2371    1
  1604   589  2372    1
  1605   590  2373    1
  1606   590  2374    1
  1607   590  2375    1
  1608   590  2376    1
  1609   591  2377    1
  1610   591  2378    1
  1611   591  2379    1
  1612   591  2380    1
  1613   592  2381    1
  1614   593  2382    1
  1615   593  2383    1
  1616   594  2384    1
  1617   594  2385    1
  1618   594  2386    1
  1619   595  2387    1
  1620   595  2388    1
  1621   595  2389    1
  1622   596  2390    1
  1623   596  2391    1
  1624   596  2392    1
  1625   597  2393    1
  1626   598  2394    1
  1627   598  2395    1
  1628   598  2396    1
  1629   599  2397    1
  1630   600  2398    1
  1631   603  2399    1
  1632   603  2400    1
  1633   605  2401    1
  1634   608  2402    1
  1635   609  2403    1
  1636   612  2404    1
  1637   617  2405    1
  1638   618  2406    1
  1639   618  2407    1
  1640   622  2408    1
  1641   623  2409    1
  1642   624  2410    1
  1643   626  2411    1
  1644   627  2412    1
  1645   629  2413    1
  1646   630  2414    1
  1647   631  2415    1
  1648   633  2416    1
  1649   634  2417    1
  1650   635  2418    1
  1651   636  2419    1
  1652   637  2420    1
  1653   638  2421    1
  1654   639  2422    1
  1655   643  2423    1
  1656   648  2424    1
  1657   652  2425    1
  1658   654  2426    1
  1659   657  2427    1
  1660   658  2428    1
  1661   658  2429    1
  1662   662  2430    1
  1663   662  2431    1
  1664   663  2432    1
  1665   666  2433    1
  1666   666  2434    1
  1667   668  2435    1
  1668   670  2436    1
  1669   671  2437    1
  1670   671  2438    1
  1671   673  2439    1
  1672   675  2440    1
  1673   676  2441    1
  1674   682  2442    1
  1675   682  2443    1
  1676   682  2444    1
  1677   683  2445    1
  1678   683  2446    1
  1679   683  2447    1
  1680   684  2448    1
  1681   685  2449    1
  1682   685  2450    1
  1683   686  2451    1
  1684   687  2452    1
  1685   687  2453    1
  1686   688  2454    1
  1687   688  2455    1
  1688   688  2456    1
  1689   689  2457    1
  1690   689  2458    1
  1691   689  2459    1
  1692   690  2460    1
  1693   691  2461    1
  1694   691  2462    1
  1695   692  2463    1
  1696   692  2464    1
  1697   692  2465    1
  1698   694  2466    1
  1699   694  2467    1
  1700   694  2468    1
  1701   695  2469    1
  1702   695  2470    1
  1703   695  2471    1
  1704   696  2472    1
  1705   696  2473    1
  1706   696  2474    1
  1707   697  2475    1
  1708   697  2476    1
  1709   697  2477    1
  1710   697  2478    1
  1711   698  2479    1
  1712   698  2480    1
  1713   698  2481    1
  1714   699  2482    1
  1715   699  2483    1
  1716   700  2484    1
  1717   703  2485    1
  1718   703  2486    1
  1719   705  2487    1
  1720   705  2488    1
  1721   706  2489    1
  1722   706  2490    1
  1723   707  2491    1
  1724   709  2492    1
  1725   710  2493    1
  1726   710  2494    1
  1727   711  2495    1
  1728   713  2496    1
  1729   714  2497    1
  1730   716  2498    1
  1731   718  2499    1
  1732   722  2500    1
  1733   723  2501    1
  1734   724  2502    1
  1735   725  2503    1
  1736   726  2504    1
  1737   727  2505    1
  1738   728  2506    1
  1739   729  2507    1
  1740   730  2508    1
  1741   732  2509    1
  1742   734  2510    1
  1743   736  2511    1
  1744   737  2512    1
  1745   739  2513    1
  1746   743  2514    1
  1747   743  2515    1
  1748   747  2516    1
  1749   752  2517    1
  1750   752  2518    1
  1751   754  2519    1
  1752   756  2520    1
  1753   757  2521    1
  1754   759  2522    1
  1755   759  2523    1
  1756   763  2524    1
  1757   764  2525    1
  1758   765  2526    1
  1759   766  2527    1
  1760   767  2528    1
  1761   768  2529    1
  1762   771  2530    1
  1763   772  2531    1
  1764   774  2532    1
  1765   776  2533    1
  1766   777  2534    1
  1767   778  2535    1
  1768   782  2536    1
  1769   782  2537    1
  1770   783  2538    1
  1771   783  2539    1
  1772   784  2540    1
  1773   784  2541    1
  1774   784  2542    1
  1775   785  2543    1
  1776   785  2544    1
  1777   785  2545    1
  1778   786  2546    1
  1779   787  2547    1
  1780   787  2548    1
  1781   788  2549    1
  1782   788  2550    1
  1783   788  2551    1
  1784   789  2552    1
  1785   789  2553    1
  1786   789  2554    1
  1787   790  2555    1
  1788   790  2556    1
  1789   790  2557    1
  1790   790  2558    1
  1791   791  2559    1
  1792   791  2560    1
  1793   792  2561    1
  1794   792  2562    1
  1795   792  2563    1
  1796   792  2564    1
  1797   793  2565    1
  1798   793  2566    1
  1799   793  2567    1
  1800   793  2568    1
  1801   794  2569    1
  1802   794  2570    1
  1803   794  2571    1
  1804   794  2572    1
  1805   795  2573    1
  1806   795  2574    1
  1807   795  2575    1
  1808   796  2576    1
  1809   796  2577    1
  1810   796  2578    1
  1811   797  2579    1
  1812   797  2580    1
  1813   797  2581    1
  1814   798  2582    1
  1815   799  2583    1
  1816   799  2584    1
  1817   800  2585    1
  1818   800  2586    1
  1819   800  2587    1
  1820   802  2588    1
  1821   802  2589    1
  1822   803  2590    1
  1823   803  2591    1
  1824   803  2592    1
  1825   803  2593    1
  1826   804  2594    1
  1827   804  2595    1
  1828   805  2596    1
  1829   805  2597    1
  1830   805  2598    1
  1831   805  2599    1
  1832   806  2600    1
  1833   806  2601    1
  1834   806  2602    1
  1835   807  2603    1
  1836   807  2604    1
  1837   808  2605    1
  1838   809  2606    1
  1839   809  2607    1
  1840   810  2608    1
  1841   810  2609    1
  1842   810  2610    1
  1843   811  2611    1
  1844   811  2612    1
  1845   811  2613    1
  1846   812  2614    1
  1847   812  2615    1
  1848   813  2616    1
  1849   814  2617    1
  1850   814  2618    1
  1851   814  2619    1
  1852   815  2620    1
  1853   815  2621    1
  1854   816  2622    1
  1855   816  2623    1
  1856   817  2624    1
  1857   817  2625    1
  1858   817  2626    1
  1859   817  2627    1
  1860   818  2628    1
  1861   818  2629    1
  1862   818  2630    1
  1863   819  2631    1
  1864   819  2632    1
  1865   820  2633    1
  1866   821  2634    1
  1867   823  2635    1
  1868   823  2636    1
  1869   824  2637    1
  1870   827  2638    1
  1871   828  2639    1
  1872   829  2640    1
  1873   832  2641    1
  1874   833  2642    1
  1875   835  2643    1
  1876   835  2644    1
  1877   836  2645    1
  1878   836  2646    1
  1879   839  2647    1
  1880   842  2648    1
  1881   842  2649    1
  1882   844  2650    1
  1883   848  2651    1
  1884   850  2652    1
  1885   854  2653    1
  1886   856  2654    1
  1887   857  2655    1
  1888   862  2656    1
  1889   862  2657    1
  1890   863  2658    1
  1891   863  2659    1
  1892   863  2660    1
  1893   863  2661    1
  1894   864  2662    1
  1895   864  2663    1
  1896   865  2664    1
  1897   865  2665    1
  1898   865  2666    1
  1899   866  2667    1
  1900   866  2668    1
  1901   867  2669    1
  1902   867  2670    1
  1903   868  2671    1
  1904   868  2672    1
  1905   868  2673    1
  1906   868  2674    1
  1907   869  2675    1
  1908   870  2676    1
  1909   870  2677    1
  1910   871  2678    1
  1911   872  2679    1
  1912   872  2680    1
  1913   872  2681    1
  1914   873  2682    1
  1915   874  2683    1
  1916   876  2684    1
  1917   876  2685    1
  1918   876  2686    1
  1919   876  2687    1
  1920   877  2688    1
  1921   877  2689    1
  1922   878  2690    1
  1923   879  2691    1
  1924   880  2692    1
  1925   882  2693    1
  1926   882  2694    1
  1927   884  2695    1
  1928   885  2696    1
  1929   885  2697    1
  1930   886  2698    1
  1931   888  2699    1
  1932   888  2700    1
  1933   891  2701    1
  1934   891  2702    1
  1935   892  2703    1
  1936   892  2704    1
  1937   896  2705    1
  1938   898  2706    1
  1939   898  2707    1
  1940   902  2708    1
  1941   903  2709    1
  1942   904  2710    1
  1943   905  2711    1
  1944   906  2712    1
  1945   907  2713    1
  1946   910  2714    1
  1947   911  2715    1
  1948   912  2716    1
  1949   914  2717    1
  1950   916  2718    1
  1951   917  2719    1
  1952   918  2720    1
  1953   923  2721    1
  1954   925  2722    1
  1955   928  2723    1
  1956   929  2724    1
  1957   931  2725    1
  1958   934  2726    1
  1959   936  2727    1
  1960   937  2728    1
  1961   942  2729    1
  1962   942  2730    1
  1963   943  2731    1
  1964   943  2732    1
  1965   945  2733    1
  1966   945  2734    1
  1967   946  2735    1
  1968   946  2736    1
  1969   947  2737    1
  1970   947  2738    1
  1971   949  2739    1
  1972   949  2740    1
  1973   950  2741    1
  1974   952  2742    1
  1975   952  2743    1
  1976   952  2744    1
  1977   953  2745    1
  1978   953  2746    1
  1979   954  2747    1
  1980   954  2748    1
  1981   954  2749    1
  1982   955  2750    1
  1983   955  2751    1
  1984   956  2752    1
  1985   956  2753    1
  1986   958  2754    1
  1987   958  2755    1
  1988   960  2756    1
  1989   960  2757    1
  1990   962  2758    1
  1991   965  2759    1
  1992   966  2760    1
  1993   967  2761    1
  1994   967  2762    1
  1995   970  2763    1
  1996   971  2764    1
  1997   972  2765    1
  1998   976  2766    1
  1999   980  2767    1
  2000   982  2768    1
  2001   982  2769    1
  2002   984  2770    1
  2003   985  2771    1
  2004   986  2772    1
  2005   987  2773    1
  2006   987  2774    1
  2007   987  2775    1
  2008   990  2776    1
  2009   992  2777    1
  2010   992  2778    1
  2011   992  2779    1
  2012   994  2780    1
  2013   995  2781    1
  2014   995  2782    1
  2015   996  2783    1
  2016   996  2784    1
  2017   997  2785    1
  2018   999  2786    1
  2019  1000  2787    1
  2020  1002  2788    1
  2021  1002  2789    1
  2022  1006  2790    1
  2023  1008  2791    1
  2024  1008  2792    1
  2025  1010  2793    1
  2026  1013  2794    1
  2027  1016  2795    1
  2028  1019  2796    1
  2029  1022  2797    1
  2030  1023  2798    1
  2031  1024  2799    1
  2032  1025  2800    1
  2033  1026  2801    1
  2034  1027  2802    1
  2035  1028  2803    1
  2036  1030  2804    1
  2037  1031  2805    1
  2038  1032  2806    1
  2039  1033  2807    1
  2040  1034  2808    1
  2041  1038  2809    1
  2042  1042  2810    1
  2043  1043  2811    1
  2044  1044  2812    1
  2045  1045  2813    1
  2046  1046  2814    1
  2047  1047  2815    1
  2048  1048  2816    1
  2049  1049  2817    1
  2050  1050  2818    1
  2051  1051  2819    1
  2052  1054  2820    1
  2053  1056  2821    1
  2054  1057  2822    1
  2055  1058  2823    1
  2056  1059  2824    1
  2057  1060  2825    1
  2058  1064  2826    1
  2059  1064  2827    1
  2060  1067  2828    1
  2061  1069  2829    1
  2062  1070  2830    1
  2063  1070  2831    1
  2064  1073  2832    1
  2065  1074  2833    1
  2066  1075  2834    1
  2067  1075  2835    1
  2068  1077  2836    1
  2069  1082  2837    1
  2070  1082  2838    1
  2071  1083  2839    1
  2072  1083  2840    1
  2073  1083  2841    1
  2074  1084  2842    1
  2075  1084  2843    1
  2076  1084  2844    1
  2077  1085  2845    1
  2078  1086  2846    1
  2079  1087  2847    1
  2080  1087  2848    1
  2081  1087  2849    1
  2082  1088  2850    1
  2083  1088  2851    1
  2084  1088  2852    1
  2085  1089  2853    1
  2086  1090  2854    1
  2087  1090  2855    1
  2088  1090  2856    1
  2089  1091  2857    1
  2090  1091  2858    1
  2091  1092  2859    1
  2092  1092  2860    1
  2093  1093  2861    1
  2094  1094  2862    1
  2095  1095  2863    1
  2096  1095  2864    1
  2097  1096  2865    1
  2098  1096  2866    1
  2099  1096  2867    1
  2100  1097  2868    1
  2101  1098  2869    1
  2102  1098  2870    1
  2103  1100  2871    1
  2104  1108  2872    1
  2105  1110  2873    1
  2106  1111  2874    1
  2107  1115  2875    1
  2108  1115  2876    1
  2109  1118  2877    1
  2110  1122  2878    1
  2111  1122  2879    1
  2112  1122  2880    1
  2113  1123  2881    1
  2114  1123  2882    1
  2115  1124  2883    1
  2116  1125  2884    1
  2117  1125  2885    1
  2118  1125  2886    1
  2119  1125  2887    1
  2120  1126  2888    1
  2121  1126  2889    1
  2122  1127  2890    1
  2123  1128  2891    1
  2124  1129  2892    1
  2125  1130  2893    1
  2126  1130  2894    1
  2127  1131  2895    1
  2128  1132  2896    1
  2129  1134  2897    1
  2130  1135  2898    1
  2131  1135  2899    1
  2132  1137  2900    1
  2133  1137  2901    1
  2134  1138  2902    1
  2135  1139  2903    1
  2136  1139  2904    1
  2137  1139  2905    1
  2138  1140  2906    1
  2139  1140  2907    1
  2140  1140  2908    1
  2141  1140  2909    1
  2142  1141  2910    1
  2143  1142  2911    1
  2144  1143  2912    1
  2145  1148  2913    1
  2146  1148  2914    1
  2147  1150  2915    1
  2148  1150  2916    1
  2149  1152  2917    1
  2150  1158  2918    1
  2151  1158  2919    1
  2152  1162  2920    1
  2153  1163  2921    1
  2154  1164  2922    1
  2155  1165  2923    1
  2156  1166  2924    1
  2157  1167  2925    1
  2158  1168  2926    1
  2159  1169  2927    1
  2160  1170  2928    1
  2161  1172  2929    1
  2162  1173  2930    1
  2163  1174  2931    1
  2164  1175  2932    1
  2165  1177  2933    1
  2166  1178  2934    1
  2167  1179  2935    1
  2168  1182  2936    1
  2169  1182  2937    1
  2170  1182  2938    1
  2171  1183  2939    1
  2172  1184  2940    1
  2173  1186  2941    1
  2174  1186  2942    1
  2175  1187  2943    1
  2176  1187  2944    1
  2177  1188  2945    1
  2178  1188  2946    1
  2179  1189  2947    1
  2180  1190  2948    1
  2181  1190  2949    1
  2182  1190  2950    1
  2183  1191  2951    1
  2184  1191  2952    1
  2185  1192  2953    1
  2186  1192  2954    1
  2187  1192  2955    1
  2188  1193  2956    1
  2189  1193  2957    1
  2190  1194  2958    1
  2191  1195  2959    1
  2192  1195  2960    1
  2193  1196  2961    1
  2194  1196  2962    1
  2195  1196  2963    1
  2196  1196  2964    1
  2197  1197  2965    1
  2198  1197  2966    1
  2199  1198  2967    1
  2200  1199  2968    1
  2201  1199  2969    1
  2202  1199  2970    1
  2203  1199  2971    1
  2204  1200  2972    1
  2205  1202  2973    1
  2206  1204  2974    1
  2207  1205  2975    1
  2208  1206  2976    1
  2209  1206  2977    1
  2210  1209  2978    1
  2211  1212  2979    1
  2212  1215  2980    1
  2213  1223  2981    1
  2214  1223  2982    1
  2215  1223  2983    1
  2216  1224  2984    1
  2217  1225  2985    1
  2218  1225  2986    1
  2219  1226  2987    1
  2220  1226  2988    1
  2221  1227  2989    1
  2222  1227  2990    1
  2223  1227  2991    1
  2224  1228  2992    1
  2225  1229  2993    1
  2226  1229  2994    1
  2227  1230  2995    1
  2228  1230  2996    1
  2229  1231  2997    1
  2230  1231  2998    1
  2231  1232  2999    1
  2232  1234  3000    1
  2233  1235  3001    1
  2234  1235  3002    1
  2235  1236  3003    1
  2236  1236  3004    1
  2237  1236  3005    1
  2238  1237  3006    1
  2239  1239  3007    1
  2240  1239  3008    1
  2241  1239  3009    1
  2242  1240  3010    1
  2243  1240  3011    1
  2244  1242  3012    1
  2245  1242  3013    1
  2246  1243  3014    1
  2247  1244  3015    1
  2248  1244  3016    1
  2249  1245  3017    1
  2250  1245  3018    1
  2251  1246  3019    1
  2252  1246  3020    1
  2253  1247  3021    1
  2254  1247  3022    1
  2255  1248  3023    1
  2256  1248  3024    1
  2257  1249  3025    1
  2258  1249  3026    1
  2259  1250  3027    1
  2260  1251  3028    1
  2261  1253  3029    1
  2262  1253  3030    1
  2263  1253  3031    1
  2264  1254  3032    1
  2265  1254  3033    1
  2266  1255  3034    1
  2267  1255  3035    1
  2268  1256  3036    1
  2269  1257  3037    1
  2270  1257  3038    1
  2271  1258  3039    1
  2272  1258  3040    1
  2273  1259  3041    1
  2274  1259  3042    1
  2275  1259  3043    1
  2276  1260  3044    1
  2277  1261  3045    1
  2278  1264  3046    1
  2279  1265  3047    1
  2280  1271  3048    1
  2281  1271  3049    1
  2282  1273  3050    1
  2283  1275  3051    1
  2284  1279  3052    1
  2285  1279  3053    1
  2286  1282  3054    1
  2287  1282  3055    1
  2288  1282  3056    1
  2289  1283  3057    1
  2290  1283  3058    1
  2291  1283  3059    1
  2292  1283  3060    1
  2293  1284  3061    1
  2294  1285  3062    1
  2295  1285  3063    1
  2296  1286  3064    1
  2297  1286  3065    1
  2298  1287  3066    1
  2299  1287  3067    1
  2300  1288  3068    1
  2301  1289  3069    1
  2302  1289  3070    1
  2303  1290  3071    1
  2304  1290  3072    1
  2305  1290  3073    1
  2306  1291  3074    1
  2307  1291  3075    1
  2308  1291  3076    1
  2309  1292  3077    1
  2310  1293  3078    1
  2311  1294  3079    1
  2312  1294  3080    1
  2313  1294  3081    1
  2314  1295  3082    1
  2315  1296  3083    1
  2316  1296  3084    1
  2317  1296  3085    1
  2318  1296  3086    1
  2319  1297  3087    1
  2320  1298  3088    1
  2321  1298  3089    1
  2322  1298  3090    1
  2323  1298  3091    1
  2324  1299  3092    1
  2325  1300  3093    1
  2326  1300  3094    1
  2327  1304  3095    1
  2328  1304  3096    1
  2329  1306  3097    1
  2330  1313  3098    1
  2331  1314  3099    1
  2332  1314  3100    1
  2333  1316  3101    1
  2334  1317  3102    1
  2335  1317  3103    1
  2336  1319  3104    1
  2337  1320  3105    1
  2338  1322  3106    1
  2339  1322  3107    1
  2340  1322  3108    1
  2341  1322  3109    1
  2342  1323  3110    1
  2343  1323  3111    1
  2344  1324  3112    1
  2345  1324  3113    1
  2346  1324  3114    1
  2347  1325  3115    1
  2348  1325  3116    1
  2349  1325  3117    1
  2350  1325  3118    1
  2351  1326  3119    1
  2352  1327  3120    1
  2353  1327  3121    1
  2354  1327  3122    1
  2355  1328  3123    1
  2356  1328  3124    1
  2357  1329  3125    1
  2358  1329  3126    1
  2359  1329  3127    1
  2360  1330  3128    1
  2361  1330  3129    1
  2362  1330  3130    1
  2363  1331  3131    1
  2364  1331  3132    1
  2365  1331  3133    1
  2366  1331  3134    1
  2367  1332  3135    1
  2368  1332  3136    1
  2369  1332  3137    1
  2370  1332  3138    1
  2371  1334  3139    1
  2372  1334  3140    1
  2373  1335  3141    1
  2374  1335  3142    1
  2375  1335  3143    1
  2376  1336  3144    1
  2377  1336  3145    1
  2378  1337  3146    1
  2379  1338  3147    1
  2380  1338  3148    1
  2381  1338  3149    1
  2382  1339  3150    1
  2383  1340  3151    1
  2384  1340  3152    1
  2385  1342  3153    1
  2386  1343  3154    1
  2387  1344  3155    1
  2388  1345  3156    1
  2389  1346  3157    1
  2390  1348  3158    1
  2391  1349  3159    1
  2392  1354  3160    1
  2393  1355  3161    1
  2394  1356  3162    1
  2395  1358  3163    1
  2396  1359  3164    1
  2397  1364  3165    1
  2398  1368  3166    1
  2399  1370  3167    1
  2400  1379  3168    1
  2401  1380  3169    1
  2402  1382  3170    1
  2403  1384  3171    1
  2404  1387  3172    1
  2405  1388  3173    1
  2406  1392  3174    1
  2407  1393  3175    1
  2408  1394  3176    1
  2409  1395  3177    1
  2410  1398  3178    1
  2411  1399  3179    1
  2412  1400  3180    1
  2413  1402  3181    1
  2414  1403  3182    1
  2415  1404  3183    1
  2416  1405  3184    1
  2417  1407  3185    1
  2418  1409  3186    1
  2419  1417  3187    1
  2420  1418  3188    1
  2421  1420  3189    1
  2422  1422  3190    1
  2423  1423  3191    1
  2424  1423  3192    1
  2425  1424  3193    1
  2426  1424  3194    1
  2427  1425  3195    1
  2428  1426  3196    1
  2429  1426  3197    1
  2430  1426  3198    1
  2431  1427  3199    1
  2432  1427  3200    1
  2433  1428  3201    1
  2434  1428  3202    1
  2435  1429  3203    1
  2436  1430  3204    1
  2437  1430  3205    1
  2438  1430  3206    1
  2439  1430  3207    1
  2440  1431  3208    1
  2441  1431  3209    1
  2442  1433  3210    1
  2443  1433  3211    1
  2444  1434  3212    1
  2445  1434  3213    1
  2446  1434  3214    1
  2447  1435  3215    1
  2448  1435  3216    1
  2449  1435  3217    1
  2450  1436  3218    1
  2451  1436  3219    1
  2452  1437  3220    1
  2453  1437  3221    1
  2454  1437  3222    1
  2455  1437  3223    1
  2456  1438  3224    1
  2457  1438  3225    1
  2458  1439  3226    1
  2459  1440  3227    1
  2460  1440  3228    1
  2461  1440  3229    1
  2462  1441  3230    1
  2463  1442  3231    1
  2464  1444  3232    1
  2465  1444  3233    1
  2466  1452  3234    1
  2467  1452  3235    1
  2468  1454  3236    1
  2469  1456  3237    1
  2470  1457  3238    1
  2471  1461  3239    1
  2472  1463  3240    1
  2473  1463  3241    1
  2474  1465  3242    1
  2475  1466  3243    1
  2476  1468  3244    1
  2477  1472  3245    1
  2478  1482  3246    1
  2479  1483  3247    1
  2480  1484  3248    1
  2481  1485  3249    1
  2482  1486  3250    1
  2483  1487  3251    1
  2484  1489  3252    1
  2485  1490  3253    1
  2486  1491  3254    1
  2487  1492  3255    1
  2488  1493  3256    1
  2489  1495  3257    1
  2490  1497  3258    1
  2491  1498  3259    1
  2492  1502  3260    1
  2493  1503  3261    1
  2494  1507  3262    1
  2495  1509  3263    1
  2496  1510  3264    1
  2497  1511  3265    1
  2498  1512  3266    1
  2499  1513  3267    1
  2500  1514  3268    1
  2501  1516  3269    1
  2502  1522  3270    1
  2503  1525  3271    1
  2504  1526  3272    1
  2505  1528  3273    1
  2506  1529  3274    1
  2507  1530  3275    1
  2508  1530  3276    1
  2509  1532  3277    1
  2510  1532  3278    1
  2511  1538  3279    1
  2512  1538  3280    1
  2513  1540  3281    1
  2514  1540  3282    1
  2515  1543  3283    1
  2516  1545  3284    1
  2517  1546  3285    1
  2518  1559  3286    1
  2519  1562  3287    1
  2520  1563  3288    1
  2521  1564  3289    1
  2522  1565  3290    1
  2523  1566  3291    1
  2524  1567  3292    1
  2525  1568  3293    1
  2526  1569  3294    1
  2527  1570  3295    1
  2528  1573  3296    1
  2529  1576  3297    1
  2530  1577  3298    1
  2531  1585  3299    1
  2532  1586  3300    1
  2533  1587  3301    1
  2534  1591  3302    1
  2535  1593  3303    1
  2536  1598  3304    1
  2537  1603  3305    1
  2538  1604  3306    1
  2539  1607  3307    1
  2540  1609  3308    1
  2541  1614  3309    1
  2542  1616  3310    1
  2543  1619  3311    1
  2544  1622  3312    1
  2545  1623  3313    1
  2546  1624  3314    1
  2547  1625  3315    1
  2548  1626  3316    1
  2549  1627  3317    1
  2550  1632  3318    1
  2551  1633  3319    1
  2552  1634  3320    1
  2553  1637  3321    1
  2554  1638  3322    1
  2555  1642  3323    1
  2556  1643  3324    1
  2557  1646  3325    1
  2558  1647  3326    1
  2559  1648  3327    1
  2560  1651  3328    1
  2561  1655  3329    1
  2562  1656  3330    1
  2563  1657  3331    1
  2564  1658  3332    1
  2565  1659  3333    1
  2566  1661  3334    1
  2567  1665  3335    1
  2568  1666  3336    1
  2569  1666  3337    1
  2570  1668  3338    1
  2571  1670  3339    1
  2572  1675  3340    1
  2573  1676  3341    1
  2574  1680  3342    1
  2575  1680  3343    1
  2576  1682  3344    1
  2577  1686  3345    1
  2578  1686  3346    1
  2579  1688  3347    1
  2580  1690  3348    1
  2581  1693  3349    1
  2582  1700  3350    1
  2583  1703  3351    1
  2584  1704  3352    1
  2585  1707  3353    1
  2586  1709  3354    1
  2587  1711  3355    1
  2588  1713  3356    1
  2589  1714  3357    1
  2590  1717  3358    1
  2591  1719  3359    1
  2592  1720  3360    1
  2593  1726  3361    1
  2594  1728  3362    1
  2595  1729  3363    1
  2596  1732  3364    1
  2597  1736  3365    1
  2598  1740  3366    1
  2599  1743  3367    1
  2600  1743  3368    1
  2601  1744  3369    1
  2602  1744  3370    1
  2603  1745  3371    1
  2604  1746  3372    1
  2605  1750  3373    1
  2606  1753  3374    1
  2607  1757  3375    1
  2608  1757  3376    1
  2609  1759  3377    1
  2610  1760  3378    1
  2611  1762  3379    1
  2612  1766  3380    1
  2613  1767  3381    1
  2614  1768  3382    1
  2615  1769  3383    1
  2616  1769  3384    1
  2617  1770  3385    1
  2618  1771  3386    1
  2619  1771  3387    1
  2620  1773  3388    1
  2621  1773  3389    1
  2622  1775  3390    1
  2623  1776  3391    1
  2624  1777  3392    1
  2625  1782  3393    1
  2626  1784  3394    1
  2627  1786  3395    1
  2628  1788  3396    1
  2629  1791  3397    1
  2630  1795  3398    1
  2631  1796  3399    1
  2632  1798  3400    1
