@<TRIPOS>MOLECULE
2NWG_LIGAND_2_uncharged.pdb
 56 57 0 0 0
SMALL
GASTEIGER

@<TRIPOS>ATOM
      1  O30        2.8080    1.9670    8.3820 O.3    69  H1S69      -0.2626
      2  C19        4.9220   -4.4050   11.0460 C.2    69  H1S69       0.2060
      3  O29        3.0940   -0.3940    8.4460 O.3    69  H1S69      -0.2626
      4  O15        4.5310    3.3980   12.5060 O.3    69  H1S69      -0.3656
      5  C27        4.3810   -5.2970   12.1730 C.2    69  H1S69       0.3717
      6  C8         4.5640    1.4640   10.7570 C.3    69  H1S69       0.1076
      7  C2         4.8860   -0.5110   12.6990 C.3    69  H1S69       0.1159
      8  S26        4.8750   -4.0350    6.4700 S.O2   69  H1S69       0.2080
      9  O28        1.0880    0.6430    9.2830 O.3    69  H1S69      -0.2626
     10  O31        5.5560   -3.0150    5.6080 O.2    69  H1S69      -0.1181
     11  O22        6.2160    0.1690   16.0680 O.2    69  H1S69      -0.1181
     12  O5         4.6520    0.8710   13.2020 O.3    69  H1S69      -0.3416
     13  S20        2.5570    0.7800    9.2000 S.3    69  H1S69      -0.0198
     14  C24        6.1150   -4.7610   10.3660 C.2    69  H1S69      -0.0041
     15  O32        5.6960   -5.2880    6.4430 O.2    69  H1S69      -0.1181
     16  O13        4.1930   -3.2740   10.7330 O.2    69  H1S69      -0.4538
     17  O34        5.0160   -6.3410   12.4450 O.2    69  H1S69      -0.2417
     18  N14        3.2270    0.8260   10.6970 N.3    69  H1S69      -0.1845
     19  C10        4.9380    1.9490   12.1970 C.3    69  H1S69       0.1762
     20  S16        4.8430   -0.4620   16.2480 S.O2   69  H1S69       0.2076
     21  C7         4.8880   -2.2840    9.9020 C.3    69  H1S69       0.2340
     22  O25        7.8480   -3.1470    9.5490 O.3    69  H1S69      -0.3848
     23  O11        4.4910   -1.2180   15.0310 O.3    69  H1S69      -0.2131
     24  C6         5.3570   -1.4120   13.8510 C.3    69  H1S69       0.1076
     25  O35        3.3290   -4.9310   12.7610 O.3    69  H1S69      -0.4750
     26  O9         6.8450    1.0220    9.8120 O.3    69  H1S69      -0.3874
     27  O23        4.8060   -1.3650   17.4550 O.3    69  H1S69      -0.2311
     28  C4         5.6010    0.4360   10.3150 C.3    69  H1S69       0.1055
     29  C1         5.8610   -0.5510   11.4680 C.3    69  H1S69       0.1186
     30  O18        4.6530   -3.5610    7.8290 O.3    69  H1S69      -0.2032
     31  O21        3.8660    0.6460   16.5090 O.2    69  H1S69      -0.1181
     32  C17        6.6760   -3.8890    9.1950 C.3    69  H1S69       0.1116
     33  C12        5.6050   -2.8900    8.6830 C.3    69  H1S69       0.1808
     34  O3         5.9340   -1.8110   10.7930 O.3    69  H1S69      -0.3308
     35  O33        3.4880   -4.2160    6.0290 O.3    69  H1S69      -0.2311
     36  H          2.3810    1.8600    7.5180 H      69  H1S69       0.2439
     37  H          2.6970   -0.4190    7.5610 H      69  H1S69       0.2439
     38  H          4.7820    3.9700   11.7640 H      69  H1S69       0.2125
     39  H          4.5460    2.3230   10.1190 H      69  H1S69       0.0554
     40  H          3.9560   -0.8930   12.3320 H      69  H1S69       0.0648
     41  H          0.7150    0.6180    8.3880 H      69  H1S69       0.2439
     42  H          6.6230   -5.6130   10.6500 H      69  H1S69       0.0637
     43  H          2.5990    1.3450   11.3100 H      69  H1S69       0.1485
     44  H          5.9970    2.0790   12.2730 H      69  H1S69       0.0925
     45  H          4.1950   -1.5610    9.5250 H      69  H1S69       0.1085
     46  H          8.5310   -3.7560    9.8720 H      69  H1S69       0.2103
     47  H          6.3650   -1.1620   14.1070 H      69  H1S69       0.0611
     48  H          5.3040   -2.4350   13.5410 H      69  H1S69       0.0611
     49  H          2.9030   -4.1360   12.5070 H      69  H1S69       0.2955
     50  H          6.6440    1.6370    9.0890 H      69  H1S69       0.2100
     51  H          5.4270   -2.1000   17.3280 H      69  H1S69       0.2469
     52  H          5.1920   -0.0870    9.4760 H      69  H1S69       0.0638
     53  H          6.7550   -0.2920   11.9960 H      69  H1S69       0.0651
     54  H          6.9410   -4.5860    8.4280 H      69  H1S69       0.0668
     55  H          6.0750   -2.1180    8.1100 H      69  H1S69       0.0714
     56  H          3.0210   -3.3670    6.0730 H      69  H1S69       0.2469
@<TRIPOS>BOND
     1     1    13    1
     2     1    36    1
     3     2    16    1
     4     2    14    2
     5     2     5    1
     6     3    13    1
     7     3    37    1
     8     4    19    1
     9     4    38    1
    10     5    17    2
    11     5    25    1
    12     6    28    1
    13     6    19    1
    14     6    18    1
    15     6    39    1
    16     7    29    1
    17     7    12    1
    18     7    24    1
    19     7    40    1
    20     8    30    1
    21     8    10    2
    22     8    15    2
    23     8    35    1
    24     9    13    1
    25     9    41    1
    26    11    20    2
    27    12    19    1
    28    13    18    1
    29    14    32    1
    30    14    42    1
    31    16    21    1
    32    18    43    1
    33    19    44    1
    34    20    23    1
    35    20    31    2
    36    20    27    1
    37    21    34    1
    38    21    33    1
    39    21    45    1
    40    22    32    1
    41    22    46    1
    42    23    24    1
    43    24    47    1
    44    24    48    1
    45    25    49    1
    46    26    28    1
    47    26    50    1
    48    27    51    1
    49    28    29    1
    50    28    52    1
    51    29    34    1
    52    29    53    1
    53    30    33    1
    54    32    33    1
    55    32    54    1
    56    33    55    1
    57    35    56    1
