@<TRIPOS>MOLECULE
2NWG_LIGAND_1_uncharged.pdb
 56 57 0 0 0
SMALL
GASTEIGER

@<TRIPOS>ATOM
      1  C7       -21.2470   -3.1150    8.8810 C.3    68  H1S68       0.2340
      2  C8       -18.4240    0.5420    9.0810 C.3    68  H1S68       0.1076
      3  O32      -19.4830   -2.3770    4.4730 O.2    68  H1S68      -0.1181
      4  O15      -18.7650    2.6110   10.2440 O.3    68  H1S68      -0.3656
      5  O35      -20.7680   -4.0570   12.8380 O.2    68  H1S68      -0.2417
      6  C2       -21.2570    0.6150    8.2360 C.3    68  H1S68       0.1159
      7  C10      -19.4730    1.5550    9.5620 C.3    68  H1S68       0.1762
      8  S16      -24.9180    1.0510    6.9670 S.O2   68  H1S68       0.2076
      9  C12      -20.5340   -4.0030    7.8110 C.3    68  H1S68       0.1808
     10  O3       -21.4480   -1.7080    8.4810 O.3    68  H1S68      -0.3308
     11  O18      -20.6180   -3.4640    6.4200 O.3    68  H1S68      -0.2032
     12  O28      -16.9830    3.2000    7.9060 O.3    68  H1S68      -0.2626
     13  O11      -23.5980    0.4000    7.2210 O.3    68  H1S68      -0.2131
     14  O31      -18.4740   -2.1890    6.7500 O.2    68  H1S68      -0.1181
     15  N14      -17.8630    0.8050    7.7130 N.3    68  H1S68      -0.1845
     16  O30      -15.7920    1.3660    9.1130 O.3    68  H1S68      -0.2626
     17  C17      -21.0710   -5.4680    8.0360 C.3    68  H1S68       0.1116
     18  C27      -21.0160   -5.0110   12.0880 C.2    68  H1S68       0.3717
     19  C19      -20.9190   -4.7390   10.5450 C.2    68  H1S68       0.2060
     20  O25      -20.2690   -6.5180    7.4080 O.3    68  H1S68      -0.3848
     21  O22      -25.6190    0.4150    5.7930 O.2    68  H1S68      -0.1181
     22  C1       -20.7200   -0.5930    9.0830 C.3    68  H1S68       0.1186
     23  C24      -21.1770   -5.7420    9.5770 C.2    68  H1S68      -0.0041
     24  C6       -22.8090    0.7420    8.4350 C.3    68  H1S68       0.1076
     25  O5       -20.4760    1.8450    8.4920 O.3    68  H1S68      -0.3416
     26  O9       -18.8440   -1.2760   10.4550 O.3    68  H1S68      -0.3874
     27  O23      -24.7220    2.5140    6.6240 O.3    68  H1S68      -0.2311
     28  C4       -19.1640   -0.7670    9.1670 C.3    68  H1S68       0.1055
     29  O21      -25.8020    0.9370    8.2000 O.2    68  H1S68      -0.1181
     30  O33      -20.5460   -1.0030    6.1120 O.3    68  H1S68      -0.2311
     31  S20      -16.4820    1.7800    7.8360 S.3    68  H1S68      -0.0198
     32  O34      -21.3310   -6.1450   12.5230 O.3    68  H1S68      -0.4750
     33  O29      -15.4980    1.6720    6.7040 O.3    68  H1S68      -0.2626
     34  S26      -19.7690   -2.2880    5.9630 S.O2   68  H1S68       0.2080
     35  O13      -20.5620   -3.4750   10.1280 O.2    68  H1S68      -0.4538
     36  H        -22.2910   -3.3000    9.0220 H      68  H1S68       0.1085
     37  H        -17.5380    0.5800    9.6790 H      68  H1S68       0.0554
     38  H        -18.1620    2.2260   10.8990 H      68  H1S68       0.2125
     39  H        -21.1090    0.4370    7.1910 H      68  H1S68       0.0648
     40  H        -20.1490    1.1970   10.3100 H      68  H1S68       0.0925
     41  H        -19.4720   -4.0030    7.9400 H      68  H1S68       0.0714
     42  H        -17.6190    3.2830    8.6330 H      68  H1S68       0.2439
     43  H        -18.5640    1.2810    7.1450 H      68  H1S68       0.1485
     44  H        -16.4160    1.4310    9.8530 H      68  H1S68       0.2439
     45  H        -22.0270   -5.5110    7.5580 H      68  H1S68       0.0668
     46  H        -19.3830   -6.5280    7.8030 H      68  H1S68       0.2103
     47  H        -20.8980   -0.4710   10.1310 H      68  H1S68       0.0651
     48  H        -21.4440   -6.6860    9.8970 H      68  H1S68       0.0637
     49  H        -23.0330    1.7520    8.7100 H      68  H1S68       0.0611
     50  H        -23.0850    0.0410    9.1950 H      68  H1S68       0.0611
     51  H        -17.8840   -1.3910   10.5280 H      68  H1S68       0.2100
     52  H        -24.2720    2.9610    7.3580 H      68  H1S68       0.2469
     53  H        -18.8820   -1.4030    8.3540 H      68  H1S68       0.0638
     54  H        -21.3730   -1.0650    5.6100 H      68  H1S68       0.2469
     55  H        -21.5120   -6.8430   11.9240 H      68  H1S68       0.2955
     56  H        -15.9280    1.9350    5.8750 H      68  H1S68       0.2439
@<TRIPOS>BOND
     1     1    10    1
     2     1     9    1
     3     1    35    1
     4     1    36    1
     5     2    28    1
     6     2     7    1
     7     2    15    1
     8     2    37    1
     9     3    34    2
    10     4     7    1
    11     4    38    1
    12     5    18    2
    13     6    22    1
    14     6    25    1
    15     6    24    1
    16     6    39    1
    17     7    25    1
    18     7    40    1
    19     8    13    1
    20     8    29    2
    21     8    21    2
    22     8    27    1
    23     9    17    1
    24     9    11    1
    25     9    41    1
    26    10    22    1
    27    11    34    1
    28    12    31    1
    29    12    42    1
    30    13    24    1
    31    14    34    2
    32    15    31    1
    33    15    43    1
    34    16    31    1
    35    16    44    1
    36    17    23    1
    37    17    20    1
    38    17    45    1
    39    18    19    1
    40    18    32    1
    41    19    35    1
    42    19    23    2
    43    20    46    1
    44    22    28    1
    45    22    47    1
    46    23    48    1
    47    24    49    1
    48    24    50    1
    49    26    28    1
    50    26    51    1
    51    27    52    1
    52    28    53    1
    53    30    34    1
    54    30    54    1
    55    31    33    1
    56    32    55    1
    57    33    56    1
