@<TRIPOS>MOLECULE
2NWG_LIGAND_1.pdb
 56 57 0 0 0
SMALL
GASTEIGER

@<TRIPOS>ATOM
      1  C7       -21.2470   -3.1150    8.8810 C.3    68  H1S68       0.2340
      2  C8       -18.4240    0.5420    9.0810 C.3    68  H1S68       0.1076
      3  O32      -19.4830   -2.3770    4.4730 O.2    68  H1S68      -0.1181
      4  O15      -18.7650    2.6110   10.2440 O.3    68  H1S68      -0.3656
      5  O35      -20.7680   -4.0570   12.8380 O.2    68  H1S68      -0.2417
      6  C2       -21.2570    0.6150    8.2360 C.3    68  H1S68       0.1159
      7  C10      -19.4730    1.5550    9.5620 C.3    68  H1S68       0.1762
      8  S16      -24.9180    1.0510    6.9670 S.O2   68  H1S68       0.2076
      9  C12      -20.5340   -4.0030    7.8110 C.3    68  H1S68       0.1808
     10  O3       -21.4480   -1.7080    8.4810 O.3    68  H1S68      -0.3308
     11  O18      -20.6180   -3.4640    6.4200 O.3    68  H1S68      -0.2032
     12  O28      -16.9830    3.2000    7.9060 O.3    68  H1S68      -0.2626
     13  O11      -23.5980    0.4000    7.2210 O.3    68  H1S68      -0.2131
     14  O31      -18.4740   -2.1890    6.7500 O.2    68  H1S68      -0.1181
     15  N14      -17.8630    0.8050    7.7130 N.3    68  H1S68      -0.1845
     16  O30      -15.7920    1.3660    9.1130 O.3    68  H1S68      -0.2626
     17  C17      -21.0710   -5.4680    8.0360 C.3    68  H1S68       0.1116
     18  C27      -21.0160   -5.0110   12.0880 C.2    68  H1S68       0.3717
     19  C19      -20.9190   -4.7390   10.5450 C.2    68  H1S68       0.2060
     20  O25      -20.2690   -6.5180    7.4080 O.3    68  H1S68      -0.3848
     21  O22      -25.6190    0.4150    5.7930 O.2    68  H1S68      -0.1181
     22  C1       -20.7200   -0.5930    9.0830 C.3    68  H1S68       0.1186
     23  C24      -21.1770   -5.7420    9.5770 C.2    68  H1S68      -0.0041
     24  C6       -22.8090    0.7420    8.4350 C.3    68  H1S68       0.1076
     25  O5       -20.4760    1.8450    8.4920 O.3    68  H1S68      -0.3416
     26  O9       -18.8440   -1.2760   10.4550 O.3    68  H1S68      -0.3874
     27  O23      -24.7220    2.5140    6.6240 O.3    68  H1S68      -0.2311
     28  C4       -19.1640   -0.7670    9.1670 C.3    68  H1S68       0.1055
     29  O21      -25.8020    0.9370    8.2000 O.2    68  H1S68      -0.1181
     30  O33      -20.5460   -1.0030    6.1120 O.3    68  H1S68      -0.2311
     31  S20      -16.4820    1.7800    7.8360 S.3    68  H1S68      -0.0198
     32  O34      -21.3310   -6.1450   12.5230 O.3    68  H1S68      -0.4750
     33  O29      -15.4980    1.6720    6.7040 O.3    68  H1S68      -0.2626
     34  S26      -19.7690   -2.2880    5.9630 S.O2   68  H1S68       0.2080
     35  O13      -20.5620   -3.4750   10.1280 O.2    68  H1S68      -0.4538
     36 H         -22.2915   -3.3000    9.0216 H      68  H1S68       0.1085
     37 H         -17.5377    0.5799    9.6792 H      68  H1S68       0.0554
     38 H         -18.1624    2.2256   10.8991 H      68  H1S68       0.2125
     39 H         -21.1093    0.4371    7.1913 H      68  H1S68       0.0648
     40 H         -20.1493    1.1970   10.3099 H      68  H1S68       0.0925
     41 H         -19.4718   -4.0026    7.9399 H      68  H1S68       0.0714
     42 H         -17.6194    3.2828    8.6333 H      68  H1S68       0.2439
     43 H         -18.5641    1.2811    7.1454 H      68  H1S68       0.1485
     44 H         -16.4156    1.4307    9.8531 H      68  H1S68       0.2439
     45 H         -22.0274   -5.5110    7.5582 H      68  H1S68       0.0668
     46 H         -19.3832   -6.5282    7.8032 H      68  H1S68       0.2103
     47 H         -20.8977   -0.4710   10.1311 H      68  H1S68       0.0651
     48 H         -21.4440   -6.6859    9.8974 H      68  H1S68       0.0637
     49 H         -23.0327    1.7516    8.7099 H      68  H1S68       0.0611
     50 H         -23.0850    0.0410    9.1948 H      68  H1S68       0.0611
     51 H         -17.8836   -1.3912   10.5277 H      68  H1S68       0.2100
     52 H         -24.2718    2.9607    7.3580 H      68  H1S68       0.2469
     53 H         -18.8820   -1.4028    8.3539 H      68  H1S68       0.0638
     54 H         -21.3734   -1.0653    5.6096 H      68  H1S68       0.2469
     55 H         -21.5116   -6.8428   11.9244 H      68  H1S68       0.2955
     56 H         -15.9281    1.9354    5.8754 H      68  H1S68       0.2439
@<TRIPOS>BOND
     1     1    10    1
     2     1     9    1
     3     1    35    1
     4     2    28    1
     5     2     7    1
     6     2    15    1
     7     3    34    2
     8     4     7    1
     9     5    18    2
    10     6    22    1
    11     6    25    1
    12     6    24    1
    13     7    25    1
    14     8    13    1
    15     8    29    2
    16     8    21    2
    17     8    27    1
    18     9    17    1
    19     9    11    1
    20    10    22    1
    21    11    34    1
    22    12    31    1
    23    13    24    1
    24    14    34    2
    25    15    31    1
    26    16    31    1
    27    17    23    1
    28    17    20    1
    29    18    19    1
    30    18    32    1
    31    19    35    1
    32    19    23    2
    33    22    28    1
    34    26    28    1
    35    30    34    1
    36    31    33    1
    37     1    36    1
    38     2    37    1
    39     4    38    1
    40     6    39    1
    41     7    40    1
    42     9    41    1
    43    12    42    1
    44    15    43    1
    45    16    44    1
    46    17    45    1
    47    20    46    1
    48    22    47    1
    49    23    48    1
    50    24    49    1
    51    24    50    1
    52    26    51    1
    53    27    52    1
    54    28    53    1
    55    30    54    1
    56    32    55    1
    57    33    56    1
