@<TRIPOS>MOLECULE
2WCO_LIGAND_1.pdb
 49 50 0 0 0
SMALL
GASTEIGER

@<TRIPOS>ATOM
      1  C2        26.3080   17.6700   29.7820 C.3   1769  GC41769     0.1317
      2  C5        30.3500   21.8890   31.6030 C.3   1770  NAG1770     0.1130
      3  O6B       24.6310   22.3440   29.7790 O.2   1769  GC41769    -0.2481
      4  O5        31.5360   21.3390   31.0820 O.3   1770  NAG1770    -0.3414
      5  C6        30.7040   22.7400   32.8520 C.3   1770  NAG1770     0.0730
      6  C3        25.3110   17.6680   28.6150 C.3   1769  GC41769     0.0887
      7  C5        25.2860   20.2590   28.7960 C.3   1769  GC41769     0.1603
      8  C2        30.3210   19.5380   29.9280 C.3   1770  NAG1770     0.1024
      9  C7        30.1990   17.5030   28.6440 C.2   1770  NAG1770     0.2104
     10  O1        32.5600   20.1840   29.4680 O.3   1770  NAG1770    -0.3654
     11  C8        29.8370   16.9450   27.2520 C.3   1770  NAG1770     0.0122
     12  O5        26.0890   20.1010   29.9500 O.3   1769  GC41769    -0.3341
     13  C1        27.0400   19.0190   29.7860 C.3   1769  GC41769     0.1888
     14  O3        28.0210   19.1160   30.7450 O.3   1770  NAG1770    -0.3408
     15  O7        30.6170   16.8140   29.6240 O.2   1770  NAG1770    -0.2761
     16  C4        24.5400   18.9720   28.4220 C.3   1769  GC41769     0.0127
     17  C3        29.0470   20.0800   30.5600 C.3   1770  NAG1770     0.1130
     18  O3        24.3470   16.6270   28.8130 O.3   1769  GC41769    -0.3890
     19  O2        27.2150   16.5710   29.7170 O.3   1769  GC41769    -0.3842
     20  O6A       23.6340   21.7480   27.9610 O.3   1769  GC41769    -0.4788
     21  O6        31.1960   21.8240   33.7840 O.3   1770  NAG1770    -0.3924
     22  C6        24.4450   21.5020   28.8640 C.2   1769  GC41769     0.3341
     23  C1        31.3260   20.6600   29.8260 C.3   1770  NAG1770     0.1776
     24  N2        30.0570   18.8000   28.7250 N.am  1770  NAG1770    -0.3053
     25  O4        28.1500   21.4550   32.3650 O.3   1770  NAG1770    -0.3865
     26  C4        29.3180   20.8340   31.8710 C.3   1770  NAG1770     0.1116
     27 H          25.7770   17.5471   30.7028 H     1769  GC41769     0.0670
     28 H          29.8978   22.5339   30.8788 H     1770  NAG1770     0.0647
     29 H          29.8328   23.2319   33.2315 H     1770  NAG1770     0.0584
     30 H          31.4151   23.5074   32.6278 H     1770  NAG1770     0.0584
     31 H          25.9095   17.5224   27.7401 H     1769  GC41769     0.0622
     32 H          25.9337   20.4259   27.9608 H     1769  GC41769     0.0715
     33 H          30.7725   18.7943   30.5508 H     1770  NAG1770     0.0575
     34 H          33.1867   20.9221   29.4092 H     1770  NAG1770     0.2125
     35 H          29.5137   17.7455   26.6199 H     1770  NAG1770     0.0322
     36 H          29.0496   16.2271   27.3493 H     1770  NAG1770     0.0322
     37 H          30.6966   16.4754   26.8214 H     1770  NAG1770     0.0322
     38 H          27.5320   19.0918   28.8386 H     1769  GC41769     0.0938
     39 H          23.6556   18.9207   29.0221 H     1769  GC41769     0.0321
     40 H          24.3540   19.0429   27.3707 H     1769  GC41769     0.0321
     41 H          28.6760   20.7742   29.8352 H     1770  NAG1770     0.0644
     42 H          23.8348   16.8092   29.6163 H     1769  GC41769     0.2099
     43 H          27.7308   16.6255   28.8973 H     1769  GC41769     0.2101
     44 H          23.4914   21.1241   27.2766 H     1769  GC41769     0.2951
     45 H          30.5231   21.1475   33.9588 H     1770  NAG1770     0.2095
     46 H          30.9163   21.3278   29.0973 H     1770  NAG1770     0.0928
     47 H          29.7562   19.2918   27.9270 H     1770  NAG1770     0.1492
     48 H          28.3559   21.9206   33.1907 H     1770  NAG1770     0.2100
     49 H          29.6572   20.1326   32.6044 H     1770  NAG1770     0.0647
@<TRIPOS>BOND
     1     1    13    1
     2     1     6    1
     3     1    19    1
     4     2    26    1
     5     2     5    1
     6     2     4    1
     7     3    22    2
     8     4    23    1
     9     5    21    1
    10     6    16    1
    11     6    18    1
    12     7    16    1
    13     7    12    1
    14     7    22    1
    15     8    23    1
    16     8    17    1
    17     8    24    1
    18     9    11    1
    19     9    24   am
    20     9    15    2
    21    10    23    1
    22    12    13    1
    23    13    14    1
    24    14    17    1
    25    17    26    1
    26    20    22    1
    27    25    26    1
    28     1    27    1
    29     2    28    1
    30     5    29    1
    31     5    30    1
    32     6    31    1
    33     7    32    1
    34     8    33    1
    35    10    34    1
    36    11    35    1
    37    11    36    1
    38    11    37    1
    39    13    38    1
    40    16    39    1
    41    16    40    1
    42    17    41    1
    43    18    42    1
    44    19    43    1
    45    20    44    1
    46    21    45    1
    47    23    46    1
    48    24    47    1
    49    25    48    1
    50    26    49    1
