@<TRIPOS>MOLECULE
2WCO_LIGAND_1_uncharged.pdb
 49 50 0 0 0
SMALL
GASTEIGER

@<TRIPOS>ATOM
      1  C2        26.3080   17.6700   29.7820 C.3   1769  GC41769     0.1317
      2  C5        30.3500   21.8890   31.6030 C.3   1770  NAG1770     0.1130
      3  O6B       24.6310   22.3440   29.7790 O.2   1769  GC41769    -0.2481
      4  O5        31.5360   21.3390   31.0820 O.3   1770  NAG1770    -0.3414
      5  C6        30.7040   22.7400   32.8520 C.3   1770  NAG1770     0.0730
      6  C3        25.3110   17.6680   28.6150 C.3   1769  GC41769     0.0887
      7  C5        25.2860   20.2590   28.7960 C.3   1769  GC41769     0.1603
      8  C2        30.3210   19.5380   29.9280 C.3   1770  NAG1770     0.1024
      9  C7        30.1990   17.5030   28.6440 C.2   1770  NAG1770     0.2104
     10  O1        32.5600   20.1840   29.4680 O.3   1770  NAG1770    -0.3654
     11  C8        29.8370   16.9450   27.2520 C.3   1770  NAG1770     0.0122
     12  O5        26.0890   20.1010   29.9500 O.3   1769  GC41769    -0.3341
     13  C1        27.0400   19.0190   29.7860 C.3   1769  GC41769     0.1888
     14  O3        28.0210   19.1160   30.7450 O.3   1770  NAG1770    -0.3408
     15  O7        30.6170   16.8140   29.6240 O.2   1770  NAG1770    -0.2761
     16  C4        24.5400   18.9720   28.4220 C.3   1769  GC41769     0.0127
     17  C3        29.0470   20.0800   30.5600 C.3   1770  NAG1770     0.1130
     18  O3        24.3470   16.6270   28.8130 O.3   1769  GC41769    -0.3890
     19  O2        27.2150   16.5710   29.7170 O.3   1769  GC41769    -0.3842
     20  O6A       23.6340   21.7480   27.9610 O.3   1769  GC41769    -0.4788
     21  O6        31.1960   21.8240   33.7840 O.3   1770  NAG1770    -0.3924
     22  C6        24.4450   21.5020   28.8640 C.2   1769  GC41769     0.3341
     23  C1        31.3260   20.6600   29.8260 C.3   1770  NAG1770     0.1776
     24  N2        30.0570   18.8000   28.7250 N.am  1770  NAG1770    -0.3053
     25  O4        28.1500   21.4550   32.3650 O.3   1770  NAG1770    -0.3865
     26  C4        29.3180   20.8340   31.8710 C.3   1770  NAG1770     0.1116
     27  H         25.7770   17.5470   30.7030 H     1769  GC41769     0.0670
     28  H         29.8980   22.5340   30.8790 H     1770  NAG1770     0.0647
     29  H         29.8330   23.2320   33.2310 H     1770  NAG1770     0.0584
     30  H         31.4150   23.5070   32.6280 H     1770  NAG1770     0.0584
     31  H         25.9100   17.5220   27.7400 H     1769  GC41769     0.0622
     32  H         25.9340   20.4260   27.9610 H     1769  GC41769     0.0715
     33  H         30.7730   18.7940   30.5510 H     1770  NAG1770     0.0575
     34  H         33.1870   20.9220   29.4090 H     1770  NAG1770     0.2125
     35  H         29.5140   17.7450   26.6200 H     1770  NAG1770     0.0322
     36  H         29.0500   16.2270   27.3490 H     1770  NAG1770     0.0322
     37  H         30.6970   16.4750   26.8210 H     1770  NAG1770     0.0322
     38  H         27.5320   19.0920   28.8390 H     1769  GC41769     0.0938
     39  H         23.6560   18.9210   29.0220 H     1769  GC41769     0.0321
     40  H         24.3540   19.0430   27.3710 H     1769  GC41769     0.0321
     41  H         28.6760   20.7740   29.8350 H     1770  NAG1770     0.0644
     42  H         23.8350   16.8090   29.6160 H     1769  GC41769     0.2099
     43  H         27.7310   16.6250   28.8970 H     1769  GC41769     0.2101
     44  H         23.4910   21.1240   27.2770 H     1769  GC41769     0.2951
     45  H         30.5230   21.1480   33.9590 H     1770  NAG1770     0.2095
     46  H         30.9160   21.3280   29.0970 H     1770  NAG1770     0.0928
     47  H         29.7560   19.2920   27.9270 H     1770  NAG1770     0.1492
     48  H         28.3560   21.9210   33.1910 H     1770  NAG1770     0.2100
     49  H         29.6570   20.1330   32.6040 H     1770  NAG1770     0.0647
@<TRIPOS>BOND
     1     1    13    1
     2     1     6    1
     3     1    19    1
     4     1    27    1
     5     2    26    1
     6     2     5    1
     7     2     4    1
     8     2    28    1
     9     3    22    2
    10     4    23    1
    11     5    21    1
    12     5    29    1
    13     5    30    1
    14     6    16    1
    15     6    18    1
    16     6    31    1
    17     7    16    1
    18     7    12    1
    19     7    22    1
    20     7    32    1
    21     8    23    1
    22     8    17    1
    23     8    24    1
    24     8    33    1
    25     9    11    1
    26     9    24   am
    27     9    15    2
    28    10    23    1
    29    10    34    1
    30    11    35    1
    31    11    36    1
    32    11    37    1
    33    12    13    1
    34    13    14    1
    35    13    38    1
    36    14    17    1
    37    16    39    1
    38    16    40    1
    39    17    26    1
    40    17    41    1
    41    18    42    1
    42    19    43    1
    43    20    22    1
    44    20    44    1
    45    21    45    1
    46    23    46    1
    47    24    47    1
    48    25    26    1
    49    25    48    1
    50    26    49    1
