@<TRIPOS>MOLECULE
2WDA_LIGAND_1.pdb
 51 52 0 0 0
SMALL
GASTEIGER

@<TRIPOS>ATOM
      1  OCB       24.6430   16.9670   28.8390 O.3   1784  L421784    -0.3848
      2  OBR       31.0780   22.9960   33.6200 O.3   1784  L421784    -0.3924
      3  OCG       25.3400   22.5820   30.1750 O.2   1784  L421784    -0.2417
      4  OCF       23.9430   22.0340   28.5070 O.3   1784  L421784    -0.4750
      5  OBM       33.0340   20.5360   29.8310 O.3   1784  L421784    -0.3654
      6  CCA       25.6390   17.9390   28.5940 C.3   1784  L421784     0.1089
      7  OBQ       31.6630   21.6060   31.5270 O.3   1784  L421784    -0.3413
      8  CBG       29.3530   20.0740   30.6970 C.3   1784  L421784     0.1166
      9  CBJ       29.8730   22.8560   33.1190 C.3   1784  L421784     0.0731
     10  OBU       27.6430   19.1100   33.7700 O.2   1784  L421784    -0.1181
     11  CCE       24.8810   21.7890   29.3070 C.2   1784  L421784     0.3717
     12  CBX       27.4140   19.1770   29.8260 C.3   1784  L421784     0.2313
     13  OBS       31.0380   16.8250   29.7030 O.2   1784  L421784    -0.2761
     14  OCH       26.5330   20.2390   30.1900 O.2   1784  L421784    -0.4539
     15  CBF       30.7830   19.6080   30.2610 C.3   1784  L421784     0.1026
     16  SBW       29.0030   19.6200   34.2480 S.O2  1784  L421784     0.2079
     17  NBN       30.5280   18.9500   28.9880 N.am  1784  L421784    -0.3053
     18  CCD       25.4800   20.3890   29.3480 C.2   1784  L421784     0.2060
     19  CBL       30.1070   17.0970   27.5060 C.3   1784  L421784     0.0122
     20  CBE       31.7110   20.8510   30.2170 C.3   1784  L421784     0.1777
     21  OBZ       27.3730   16.7030   29.6410 O.3   1784  L421784    -0.3827
     22  OBP       29.9510   19.8990   33.1190 O.3   1784  L421784    -0.2071
     23  CBY       26.5830   17.8650   29.7690 C.3   1784  L421784     0.1466
     24  OBO       28.3540   19.1190   30.8510 O.3   1784  L421784    -0.3314
     25  CBK       30.5930   17.6140   28.8540 C.2   1784  L421784     0.2104
     26  CCC       24.9820   19.3340   28.5660 C.2   1784  L421784    -0.0042
     27  OBT       28.7530   20.8250   35.0730 O.3   1784  L421784    -0.2311
     28  CBI       30.2820   21.9790   31.8530 C.3   1784  L421784     0.1156
     29  CBH       29.4030   20.7320   32.0390 C.3   1784  L421784     0.1459
     30  OBV       29.7080   18.6770   35.0710 O.2   1784  L421784    -0.1181
     31 H          24.0029   16.9691   28.1102 H     1784  L421784     0.2103
     32 H          31.0313   23.5255   34.4314 H     1784  L421784     0.2095
     33 H          23.6676   21.3812   27.8938 H     1784  L421784     0.2955
     34 H          33.5689   21.3451   29.8200 H     1784  L421784     0.2125
     35 H          26.1420   17.7721   27.6644 H     1784  L421784     0.0667
     36 H          29.0928   20.6946   29.8651 H     1784  L421784     0.0645
     37 H          29.4344   23.7921   32.8428 H     1784  L421784     0.0584
     38 H          29.1324   22.4385   33.7687 H     1784  L421784     0.0584
     39 H          27.8879   19.3178   28.8771 H     1784  L421784     0.1084
     40 H          31.2954   18.9324   30.9136 H     1784  L421784     0.0575
     41 H          30.3015   19.4990   28.2028 H     1784  L421784     0.1492
     42 H          30.1914   16.0306   27.4815 H     1784  L421784     0.0322
     43 H          30.7041   17.5201   26.7254 H     1784  L421784     0.0322
     44 H          29.0841   17.3772   27.3643 H     1784  L421784     0.0322
     45 H          31.3341   21.4971   29.4519 H     1784  L421784     0.0928
     46 H          26.7977   15.9226   29.6112 H     1784  L421784     0.2102
     47 H          26.0592   17.7872   30.6988 H     1784  L421784     0.0685
     48 H          24.1613   19.4953   27.9615 H     1784  L421784     0.0637
     49 H          28.2764   21.4849   34.5454 H     1784  L421784     0.2469
     50 H          30.1436   22.6118   31.0014 H     1784  L421784     0.0648
     51 H          28.4021   20.9466   32.3505 H     1784  L421784     0.0675
@<TRIPOS>BOND
     1     1     6    1
     2     2     9    1
     3     3    11    2
     4     4    11    1
     5     5    20    1
     6     6    26    1
     7     6    23    1
     8     7    20    1
     9     7    28    1
    10     8    15    1
    11     8    29    1
    12     8    24    1
    13     9    28    1
    14    10    16    2
    15    11    18    1
    16    12    24    1
    17    12    14    1
    18    12    23    1
    19    13    25    2
    20    14    18    1
    21    15    20    1
    22    15    17    1
    23    16    22    1
    24    16    30    2
    25    16    27    1
    26    17    25   am
    27    18    26    2
    28    19    25    1
    29    21    23    1
    30    22    29    1
    31    28    29    1
    32     1    31    1
    33     2    32    1
    34     4    33    1
    35     5    34    1
    36     6    35    1
    37     8    36    1
    38     9    37    1
    39     9    38    1
    40    12    39    1
    41    15    40    1
    42    17    41    1
    43    19    42    1
    44    19    43    1
    45    19    44    1
    46    20    45    1
    47    21    46    1
    48    23    47    1
    49    26    48    1
    50    27    49    1
    51    28    50    1
    52    29    51    1
