@<TRIPOS>MOLECULE
2WDA_LIGAND_1_uncharged.pdb
 51 52 0 0 0
SMALL
GASTEIGER

@<TRIPOS>ATOM
      1  OCB       24.6430   16.9670   28.8390 O.3   1784  L421784    -0.3848
      2  OBR       31.0780   22.9960   33.6200 O.3   1784  L421784    -0.3924
      3  OCG       25.3400   22.5820   30.1750 O.2   1784  L421784    -0.2417
      4  OCF       23.9430   22.0340   28.5070 O.3   1784  L421784    -0.4750
      5  OBM       33.0340   20.5360   29.8310 O.3   1784  L421784    -0.3654
      6  CCA       25.6390   17.9390   28.5940 C.3   1784  L421784     0.1089
      7  OBQ       31.6630   21.6060   31.5270 O.3   1784  L421784    -0.3413
      8  CBG       29.3530   20.0740   30.6970 C.3   1784  L421784     0.1166
      9  CBJ       29.8730   22.8560   33.1190 C.3   1784  L421784     0.0731
     10  OBU       27.6430   19.1100   33.7700 O.2   1784  L421784    -0.1181
     11  CCE       24.8810   21.7890   29.3070 C.2   1784  L421784     0.3717
     12  CBX       27.4140   19.1770   29.8260 C.3   1784  L421784     0.2313
     13  OBS       31.0380   16.8250   29.7030 O.2   1784  L421784    -0.2761
     14  OCH       26.5330   20.2390   30.1900 O.2   1784  L421784    -0.4539
     15  CBF       30.7830   19.6080   30.2610 C.3   1784  L421784     0.1026
     16  SBW       29.0030   19.6200   34.2480 S.O2  1784  L421784     0.2079
     17  NBN       30.5280   18.9500   28.9880 N.am  1784  L421784    -0.3053
     18  CCD       25.4800   20.3890   29.3480 C.2   1784  L421784     0.2060
     19  CBL       30.1070   17.0970   27.5060 C.3   1784  L421784     0.0122
     20  CBE       31.7110   20.8510   30.2170 C.3   1784  L421784     0.1777
     21  OBZ       27.3730   16.7030   29.6410 O.3   1784  L421784    -0.3827
     22  OBP       29.9510   19.8990   33.1190 O.3   1784  L421784    -0.2071
     23  CBY       26.5830   17.8650   29.7690 C.3   1784  L421784     0.1466
     24  OBO       28.3540   19.1190   30.8510 O.3   1784  L421784    -0.3314
     25  CBK       30.5930   17.6140   28.8540 C.2   1784  L421784     0.2104
     26  CCC       24.9820   19.3340   28.5660 C.2   1784  L421784    -0.0042
     27  OBT       28.7530   20.8250   35.0730 O.3   1784  L421784    -0.2311
     28  CBI       30.2820   21.9790   31.8530 C.3   1784  L421784     0.1156
     29  CBH       29.4030   20.7320   32.0390 C.3   1784  L421784     0.1459
     30  OBV       29.7080   18.6770   35.0710 O.2   1784  L421784    -0.1181
     31  H         24.0030   16.9690   28.1100 H     1784  L421784     0.2103
     32  H         31.0310   23.5260   34.4310 H     1784  L421784     0.2095
     33  H         23.6680   21.3810   27.8940 H     1784  L421784     0.2955
     34  H         33.5690   21.3450   29.8200 H     1784  L421784     0.2125
     35  H         26.1420   17.7720   27.6640 H     1784  L421784     0.0667
     36  H         29.0930   20.6950   29.8650 H     1784  L421784     0.0645
     37  H         29.4340   23.7920   32.8430 H     1784  L421784     0.0584
     38  H         29.1320   22.4390   33.7690 H     1784  L421784     0.0584
     39  H         27.8880   19.3180   28.8770 H     1784  L421784     0.1084
     40  H         31.2950   18.9320   30.9140 H     1784  L421784     0.0575
     41  H         30.3020   19.4990   28.2030 H     1784  L421784     0.1492
     42  H         30.1910   16.0310   27.4820 H     1784  L421784     0.0322
     43  H         30.7040   17.5200   26.7250 H     1784  L421784     0.0322
     44  H         29.0840   17.3770   27.3640 H     1784  L421784     0.0322
     45  H         31.3340   21.4970   29.4520 H     1784  L421784     0.0928
     46  H         26.7980   15.9230   29.6110 H     1784  L421784     0.2102
     47  H         26.0590   17.7870   30.6990 H     1784  L421784     0.0685
     48  H         24.1610   19.4950   27.9620 H     1784  L421784     0.0637
     49  H         28.2760   21.4850   34.5450 H     1784  L421784     0.2469
     50  H         30.1440   22.6120   31.0010 H     1784  L421784     0.0648
     51  H         28.4020   20.9470   32.3500 H     1784  L421784     0.0675
@<TRIPOS>BOND
     1     1     6    1
     2     1    31    1
     3     2     9    1
     4     2    32    1
     5     3    11    2
     6     4    11    1
     7     4    33    1
     8     5    20    1
     9     5    34    1
    10     6    26    1
    11     6    23    1
    12     6    35    1
    13     7    20    1
    14     7    28    1
    15     8    15    1
    16     8    29    1
    17     8    24    1
    18     8    36    1
    19     9    28    1
    20     9    37    1
    21     9    38    1
    22    10    16    2
    23    11    18    1
    24    12    24    1
    25    12    14    1
    26    12    23    1
    27    12    39    1
    28    13    25    2
    29    14    18    1
    30    15    20    1
    31    15    17    1
    32    15    40    1
    33    16    22    1
    34    16    30    2
    35    16    27    1
    36    17    25   am
    37    17    41    1
    38    18    26    2
    39    19    25    1
    40    19    42    1
    41    19    43    1
    42    19    44    1
    43    20    45    1
    44    21    23    1
    45    21    46    1
    46    22    29    1
    47    23    47    1
    48    26    48    1
    49    27    49    1
    50    28    29    1
    51    28    50    1
    52    29    51    1
