@<TRIPOS>MOLECULE
2WNU_LIGAND_1_uncharged.pdb
 53 54 0 0 0
SMALL
GASTEIGER

@<TRIPOS>ATOM
      1  O61       23.3960  -16.7880   -3.6630 O.2   1218  IDU1218    -0.2481
      2  S         18.3990  -11.0900   -2.1710 S.3   1218  IDU1218    -0.0004
      3  O3S       18.6770  -10.1700   -3.2950 O.3   1218  IDU1218    -0.2682
      4  O5        23.4850   -9.0890   -5.9090 O.3   1219  SGN1219    -0.3416
      5  O1        24.7020  -10.2050   -7.5440 O.3   1219  SGN1219    -0.3656
      6  C4        22.7380  -11.1040   -4.7590 C.3   1219  SGN1219     0.1176
      7  N         26.4550  -11.2630   -5.6210 N.3   1219  SGN1219    -0.1775
      8  S2        20.3530   -7.2490   -4.2020 S.3   1219  SGN1219    -0.0008
      9  O6        21.3740   -8.0040   -5.1090 O.3   1219  SGN1219    -0.2520
     10  O62       23.1440  -15.8280   -1.6740 O.3   1218  IDU1218    -0.4788
     11  C2        19.8930  -12.8390   -3.5030 C.3   1218  IDU1218     0.1620
     12  O2S       16.9980  -11.5590   -2.2530 O.2   1218  IDU1218    -0.3452
     13  C5        21.9330  -14.9290   -3.5180 C.3   1218  IDU1218     0.1603
     14  O1S       28.8980  -11.4330   -5.8310 O.3   1219  SGN1219    -0.0534
     15  O3S       27.9380   -9.3890   -4.9640 O.3   1219  SGN1219    -0.0534
     16  O5S       19.0500   -7.3770   -4.8440 O.2   1219  SGN1219    -0.3452
     17  O2S       27.8900  -11.4090   -3.6260 O.3   1219  SGN1219    -0.0534
     18  C3        19.4850  -14.3040   -3.7200 C.3   1218  IDU1218     0.0912
     19  O5        22.2060  -13.6270   -2.9970 O.3   1218  IDU1218    -0.3340
     20  C3        24.1560  -11.6780   -4.8780 C.3   1219  SGN1219     0.1055
     21  C6        22.8880  -15.9150   -2.9100 C.2   1218  IDU1218     0.3341
     22  O6S       20.8110   -5.8670   -4.1270 O.3   1219  SGN1219    -0.2682
     23  C4        20.4950  -15.3190   -3.1780 C.3   1218  IDU1218     0.0128
     24  C6        21.1250   -9.3400   -5.4950 C.3   1219  SGN1219     0.1035
     25  O3        19.2680  -14.5430   -5.1160 O.3   1218  IDU1218    -0.3889
     26  O4        21.7970  -12.1550   -4.8720 O.3   1219  SGN1219    -0.3401
     27  C2        25.2210  -10.6210   -5.1990 C.3   1219  SGN1219     0.1079
     28  C1        24.7550   -9.6140   -6.2600 C.3   1219  SGN1219     0.1762
     29  O4S       20.3480   -7.8860   -2.8880 O.2   1219  SGN1219    -0.3452
     30  C1        21.4040  -12.5690   -3.5480 C.3   1218  IDU1218     0.1913
     31  O1S       18.6170  -10.3680   -0.8960 O.2   1218  IDU1218    -0.3452
     32  C5        22.4370  -10.0440   -5.8230 C.3   1219  SGN1219     0.1158
     33  S1        27.8650  -10.8510   -4.9780 S.3   1219  SGN1219     0.0767
     34  O2        19.3910  -12.3880   -2.2470 O.3   1218  IDU1218    -0.2436
     35  O3        24.4940  -12.3410   -3.6770 O.3   1219  SGN1219    -0.3874
     36  H         24.4050   -9.5460   -8.1910 H     1219  SGN1219     0.2125
     37  H         22.6680  -10.6280   -3.8040 H     1219  SGN1219     0.0650
     38  H         26.5370  -11.1020   -6.6250 H     1219  SGN1219     0.1487
     39  H         22.7390  -15.1590   -1.1580 H     1218  IDU1218     0.2951
     40  H         19.4680  -12.3040   -4.3270 H     1218  IDU1218     0.0697
     41  H         22.0550  -14.9280   -4.5810 H     1218  IDU1218     0.0715
     42  H         18.5840  -14.4480   -3.1620 H     1218  IDU1218     0.0622
     43  H         24.1450  -12.3600   -5.7030 H     1219  SGN1219     0.0638
     44  H         20.3940  -15.3740   -2.1140 H     1218  IDU1218     0.0321
     45  H         20.2910  -16.2650   -3.6340 H     1218  IDU1218     0.0321
     46  H         20.4940   -9.3470   -6.3590 H     1219  SGN1219     0.0610
     47  H         20.6440   -9.8540   -4.6890 H     1219  SGN1219     0.0610
     48  H         20.0970  -14.4060   -5.6000 H     1218  IDU1218     0.2099
     49  H         25.3940  -10.0680   -4.2990 H     1219  SGN1219     0.0554
     50  H         25.4680   -8.8170   -6.2950 H     1219  SGN1219     0.0925
     51  H         21.6050  -11.7520   -2.8870 H     1218  IDU1218     0.0939
     52  H         22.3550  -10.5370   -6.7690 H     1219  SGN1219     0.0648
     53  H         24.4970  -11.7040   -2.9460 H     1219  SGN1219     0.2100
@<TRIPOS>BOND
     1     1    21    2
     2     2    34    1
     3     2    31    2
     4     2    12    2
     5     2     3    1
     6     4    28    1
     7     4    32    1
     8     5    28    1
     9     5    36    1
    10     6    20    1
    11     6    32    1
    12     6    26    1
    13     6    37    1
    14     7    27    1
    15     7    33    1
    16     7    38    1
    17     8     9    1
    18     8    29    2
    19     8    16    2
    20     8    22    1
    21     9    24    1
    22    10    21    1
    23    10    39    1
    24    11    30    1
    25    11    18    1
    26    11    34    1
    27    11    40    1
    28    13    23    1
    29    13    21    1
    30    13    19    1
    31    13    41    1
    32    14    33    1
    33    15    33    1
    34    17    33    1
    35    18    23    1
    36    18    25    1
    37    18    42    1
    38    19    30    1
    39    20    27    1
    40    20    35    1
    41    20    43    1
    42    23    44    1
    43    23    45    1
    44    24    32    1
    45    24    46    1
    46    24    47    1
    47    25    48    1
    48    26    30    1
    49    27    28    1
    50    27    49    1
    51    28    50    1
    52    30    51    1
    53    32    52    1
    54    35    53    1
