@<TRIPOS>MOLECULE
2WNU_LIGAND_1.pdb
 58 59 0 0 0
SMALL
GASTEIGER

@<TRIPOS>ATOM
      1  O61       23.3960  -16.7880   -3.6630 O.2   1218  IDU1218    -0.2481
      2  S         18.3990  -11.0900   -2.1710 S.O2  1218  IDU1218     0.2080
      3  O3S       18.6770  -10.1700   -3.2950 O.3   1218  IDU1218    -0.2311
      4  O5        23.4850   -9.0890   -5.9090 O.3   1219  SGN1219    -0.3416
      5  O1        24.7020  -10.2050   -7.5440 O.3   1219  SGN1219    -0.3656
      6  C4        22.7380  -11.1040   -4.7590 C.3   1219  SGN1219     0.1176
      7  N         26.4550  -11.2630   -5.6210 N.3   1219  SGN1219    -0.1845
      8  S2        20.3530   -7.2490   -4.2020 S.O2  1219  SGN1219     0.2076
      9  O6        21.3740   -8.0040   -5.1090 O.3   1219  SGN1219    -0.2131
     10  O62       23.1440  -15.8280   -1.6740 O.3   1218  IDU1218    -0.4788
     11  C2        19.8930  -12.8390   -3.5030 C.3   1218  IDU1218     0.1660
     12  O2S       16.9980  -11.5590   -2.2530 O.2   1218  IDU1218    -0.1181
     13  C5        21.9330  -14.9290   -3.5180 C.3   1218  IDU1218     0.1603
     14  O1S       28.8980  -11.4330   -5.8310 O.3   1219  SGN1219    -0.2626
     15  O3S       27.9380   -9.3890   -4.9640 O.3   1219  SGN1219    -0.2626
     16  O5S       19.0500   -7.3770   -4.8440 O.2   1219  SGN1219    -0.1181
     17  O2S       27.8900  -11.4090   -3.6260 O.3   1219  SGN1219    -0.2626
     18  C3        19.4850  -14.3040   -3.7200 C.3   1218  IDU1218     0.0914
     19  O5        22.2060  -13.6270   -2.9970 O.3   1218  IDU1218    -0.3340
     20  C3        24.1560  -11.6780   -4.8780 C.3   1219  SGN1219     0.1055
     21  C6        22.8880  -15.9150   -2.9100 C.2   1218  IDU1218     0.3341
     22  O6S       20.8110   -5.8670   -4.1270 O.3   1219  SGN1219    -0.2311
     23  C4        20.4950  -15.3190   -3.1780 C.3   1218  IDU1218     0.0128
     24  C6        21.1250   -9.3400   -5.4950 C.3   1219  SGN1219     0.1076
     25  O3        19.2680  -14.5430   -5.1160 O.3   1218  IDU1218    -0.3889
     26  O4        21.7970  -12.1550   -4.8720 O.3   1219  SGN1219    -0.3401
     27  C2        25.2210  -10.6210   -5.1990 C.3   1219  SGN1219     0.1076
     28  C1        24.7550   -9.6140   -6.2600 C.3   1219  SGN1219     0.1762
     29  O4S       20.3480   -7.8860   -2.8880 O.2   1219  SGN1219    -0.1181
     30  C1        21.4040  -12.5690   -3.5480 C.3   1218  IDU1218     0.1914
     31  O1S       18.6170  -10.3680   -0.8960 O.2   1218  IDU1218    -0.1181
     32  C5        22.4370  -10.0440   -5.8230 C.3   1219  SGN1219     0.1159
     33  S1        27.8650  -10.8510   -4.9780 S.3   1219  SGN1219    -0.0198
     34  O2        19.3910  -12.3880   -2.2470 O.3   1218  IDU1218    -0.2048
     35  O3        24.4940  -12.3410   -3.6770 O.3   1219  SGN1219    -0.3874
     36 H          19.5954   -9.8624   -3.2415 H     1218  IDU1218     0.2469
     37 H          24.4052   -9.5462   -8.1912 H     1219  SGN1219     0.2125
     38 H          22.6677  -10.6277   -3.8035 H     1219  SGN1219     0.0650
     39 H          26.5365  -11.1020   -6.6249 H     1219  SGN1219     0.1485
     40 H          22.7389  -15.1593   -1.1576 H     1218  IDU1218     0.2951
     41 H          19.4683  -12.3039   -4.3265 H     1218  IDU1218     0.0698
     42 H          22.0549  -14.9283   -4.5810 H     1218  IDU1218     0.0715
     43 H          28.8476  -11.0377   -6.7154 H     1219  SGN1219     0.2439
     44 H          27.9191   -9.0556   -5.8747 H     1219  SGN1219     0.2439
     45 H          27.8402  -12.3765   -3.6746 H     1219  SGN1219     0.2439
     46 H          18.5835  -14.4484   -3.1620 H     1218  IDU1218     0.0622
     47 H          24.1455  -12.3596   -5.7028 H     1219  SGN1219     0.0638
     48 H          21.6782   -5.8369   -3.6935 H     1219  SGN1219     0.2469
     49 H          20.3937  -15.3736   -2.1142 H     1218  IDU1218     0.0321
     50 H          20.2914  -16.2654   -3.6339 H     1218  IDU1218     0.0321
     51 H          20.4940   -9.3469   -6.3591 H     1219  SGN1219     0.0611
     52 H          20.6441   -9.8535   -4.6888 H     1219  SGN1219     0.0611
     53 H          20.0973  -14.4063   -5.6002 H     1218  IDU1218     0.2099
     54 H          25.3942  -10.0681   -4.2994 H     1219  SGN1219     0.0554
     55 H          25.4680   -8.8169   -6.2949 H     1219  SGN1219     0.0925
     56 H          21.6047  -11.7521   -2.8868 H     1218  IDU1218     0.0939
     57 H          22.3548  -10.5366   -6.7693 H     1219  SGN1219     0.0648
     58 H          24.4969  -11.7038   -2.9457 H     1219  SGN1219     0.2100
@<TRIPOS>BOND
     1     1    21    2
     2     2    34    1
     3     2    31    2
     4     2    12    2
     5     2     3    1
     6     4    28    1
     7     4    32    1
     8     5    28    1
     9     6    20    1
    10     6    32    1
    11     6    26    1
    12     7    27    1
    13     7    33    1
    14     8     9    1
    15     8    29    2
    16     8    16    2
    17     8    22    1
    18     9    24    1
    19    10    21    1
    20    11    30    1
    21    11    18    1
    22    11    34    1
    23    13    23    1
    24    13    21    1
    25    13    19    1
    26    14    33    1
    27    15    33    1
    28    17    33    1
    29    18    23    1
    30    18    25    1
    31    19    30    1
    32    20    27    1
    33    20    35    1
    34    24    32    1
    35    26    30    1
    36    27    28    1
    37     3    36    1
    38     5    37    1
    39     6    38    1
    40     7    39    1
    41    10    40    1
    42    11    41    1
    43    13    42    1
    44    14    43    1
    45    15    44    1
    46    17    45    1
    47    18    46    1
    48    20    47    1
    49    22    48    1
    50    23    49    1
    51    23    50    1
    52    24    51    1
    53    24    52    1
    54    25    53    1
    55    27    54    1
    56    28    55    1
    57    30    56    1
    58    32    57    1
    59    35    58    1
