@<TRIPOS>MOLECULE
3ANK_LIGAND_1.pdb
 51 52 0 0 0
SMALL
GASTEIGER

@<TRIPOS>ATOM
      1  C2        13.4970   -5.0480   29.9710 C.3   399  NG6399      0.1025
      2  C1        12.2510   -3.4950   27.0300 C.3   400  GCD400      0.2313
      3  C3        10.9470   -3.8450   24.9500 C.3   400  GCD400      0.1089
      4  O3        12.2220   -3.7360   28.4290 O.3   399  NG6399     -0.3315
      5  C5        11.5920   -1.5490   25.7800 C.2   400  GCD400      0.2060
      6  O6B       10.9670    0.4310   24.6290 O.2   400  GCD400     -0.2417
      7  O3         9.7170   -4.3410   24.4110 O.3   400  GCD400     -0.3848
      8  O7        14.3470   -8.0950   28.2460 O.2   399  NG6399     -0.2761
      9  O6A       12.1570    0.6350   26.4740 O.3   400  GCD400     -0.4750
     10  C4        14.0270   -2.6010   29.5230 C.3   399  NG6399      0.1117
     11  C3        13.5430   -3.9230   28.9240 C.3   399  NG6399      0.1140
     12  C8        15.7680   -6.3330   29.0900 C.3   399  NG6399      0.0122
     13  S         17.2430   -0.9320   32.8490 S.O2  399  NG6399      0.2076
     14  C2        11.0130   -4.1470   26.4420 C.3   400  GCD400      0.1466
     15  C1        14.7540   -5.0570   30.8590 C.3   399  NG6399      0.1777
     16  O6        16.9260   -1.7880   31.7440 O.3   399  NG6399     -0.2131
     17  C7        14.4130   -7.0150   28.8320 C.2   399  NG6399      0.2104
     18  C4        10.9720   -2.3330   24.8150 C.2   400  GCD400     -0.0042
     19  O2        11.0850   -5.5530   26.6510 O.3   400  GCD400     -0.3827
     20  O3S       17.7740   -1.7640   33.9750 O.3   399  NG6399     -0.2311
     21  O1S       16.0060   -0.2090   33.3070 O.2   399  NG6399     -0.1181
     22  N         13.3540   -6.3470   29.2830 N.am  399  NG6399     -0.3053
     23  C6        11.5580   -0.0430   25.6200 C.2   400  GCD400      0.3717
     24  C5        15.3030   -2.8290   30.3170 C.3   399  NG6399      0.1156
     25  O5        12.2620   -2.0690   26.8540 O.2   400  GCD400     -0.4539
     26  O2S       18.2730    0.0870   32.4280 O.2   399  NG6399     -0.1181
     27  O4        13.0210   -2.0530   30.3840 O.3   399  NG6399     -0.3865
     28  O1        14.5270   -5.9080   31.9900 O.3   399  NG6399     -0.3654
     29  C6        15.7590   -1.5390   30.9700 C.3   399  NG6399      0.1076
     30  O5        15.0400   -3.7490   31.3710 O.3   399  NG6399     -0.3413
     31 H          12.6562   -4.8757   30.6100 H     399  NG6399      0.0575
     32 H          13.1092   -3.9022   26.5376 H     400  GCD400      0.1084
     33 H          11.7601   -4.3040   24.4274 H     400  GCD400      0.0667
     34 H           8.9713   -3.9317   24.8772 H     400  GCD400      0.2103
     35 H          12.5806    0.2123   27.1950 H     400  GCD400      0.2955
     36 H          14.2217   -1.9134   28.7266 H     399  NG6399      0.0647
     37 H          14.2275   -4.2043   28.1512 H     399  NG6399      0.0644
     38 H          16.5544   -6.9411   28.6942 H     399  NG6399      0.0322
     39 H          15.9095   -6.2079   30.1432 H     399  NG6399      0.0322
     40 H          15.7823   -5.3758   28.6120 H     399  NG6399      0.0322
     41 H          10.1346   -3.7627   26.9169 H     400  GCD400      0.0685
     42 H          15.5713   -5.3992   30.2592 H     399  NG6399      0.0928
     43 H          10.5251   -1.8842   24.0002 H     400  GCD400      0.0637
     44 H          11.8808   -5.9034   26.2212 H     400  GCD400      0.2102
     45 H          17.1056   -2.4156   34.2387 H     399  NG6399      0.2469
     46 H          12.4550   -6.7273   29.1551 H     399  NG6399      0.1492
     47 H          16.0513   -3.1958   29.6459 H     399  NG6399      0.0648
     48 H          12.8416   -2.6736   31.1075 H     399  NG6399      0.2100
     49 H          13.7810   -5.5662   32.5073 H     399  NG6399      0.2125
     50 H          15.9799   -0.8148   30.2139 H     399  NG6399      0.0611
     51 H          14.9824   -1.1656   31.6043 H     399  NG6399      0.0611
@<TRIPOS>BOND
     1     1    15    1
     2     1    11    1
     3     1    22    1
     4     2     4    1
     5     2    14    1
     6     2    25    1
     7     3    14    1
     8     3    18    1
     9     3     7    1
    10     4    11    1
    11     5    18    2
    12     5    23    1
    13     5    25    1
    14     6    23    2
    15     8    17    2
    16     9    23    1
    17    10    11    1
    18    10    24    1
    19    10    27    1
    20    12    17    1
    21    13    16    1
    22    13    21    2
    23    13    26    2
    24    13    20    1
    25    14    19    1
    26    15    28    1
    27    15    30    1
    28    16    29    1
    29    17    22   am
    30    24    29    1
    31    24    30    1
    32     1    31    1
    33     2    32    1
    34     3    33    1
    35     7    34    1
    36     9    35    1
    37    10    36    1
    38    11    37    1
    39    12    38    1
    40    12    39    1
    41    12    40    1
    42    14    41    1
    43    15    42    1
    44    18    43    1
    45    19    44    1
    46    20    45    1
    47    22    46    1
    48    24    47    1
    49    27    48    1
    50    28    49    1
    51    29    50    1
    52    29    51    1
