@<TRIPOS>MOLECULE
3B9F_LIGAND_1.pdb
 54 55 0 0 0
SMALL
GASTEIGER

@<TRIPOS>ATOM
      1  C6       -36.2750   27.9350  -34.4500 C.3     1  SGN1        0.0730
      2  O3       -37.3620   26.1600  -30.0200 O.3     1  SGN1       -0.3874
      3  C3       -37.8600   26.3330  -31.3550 C.3     1  SGN1        0.1055
      4  C6       -34.7000   27.7680  -27.8900 C.2     2  IDS2        0.3341
      5  O3S      -37.4030   32.2480  -31.5130 O.2     2  IDS2       -0.1181
      6  C1       -38.4920   25.1580  -33.4430 C.3     1  SGN1        0.1762
      7  C1       -35.3840   28.8000  -31.3760 C.3     2  IDS2        0.1914
      8  O5       -34.8490   28.0220  -30.2920 O.3     2  IDS2       -0.3340
      9  O1       -36.7490   28.4490  -31.6420 O.3     2  IDS2       -0.3401
     10  C3       -33.9940   30.5800  -30.3550 C.3     2  IDS2        0.0914
     11  O62      -35.3120   27.9720  -26.8180 O.3     2  IDS2       -0.4788
     12  O2S      -40.6020   23.3610  -33.1780 O.3     1  SGN1       -0.2626
     13  S        -36.7270   31.5200  -32.6770 S.O2    2  IDS2        0.2080
     14  C4       -33.9970   29.8760  -29.0080 C.3     2  IDS2        0.0128
     15  O2S      -37.5910   30.3340  -33.1080 O.3     2  IDS2       -0.2311
     16  O3S      -38.3970   22.2580  -32.7380 O.3     1  SGN1       -0.2626
     17  O61      -33.8550   26.8720  -28.0950 O.2     2  IDS2       -0.2481
     18  O5       -37.4480   25.8500  -34.1440 O.3     1  SGN1       -0.3416
     19  N        -39.1200   24.2300  -31.2440 N.3     1  SGN1       -0.1845
     20  C2       -35.3110   30.2840  -31.0520 C.3     2  IDS2        0.1660
     21  O1S      -40.2960   21.9360  -31.1520 O.3     1  SGN1       -0.2626
     22  O2       -35.4370   31.0490  -32.2600 O.3     2  IDS2       -0.2048
     23  C5       -34.9890   28.7240  -29.0490 C.3     2  IDS2        0.1603
     24  O1S      -36.5610   32.4830  -33.8540 O.2     2  IDS2       -0.1181
     25  C2       -38.0910   24.9710  -31.9890 C.3     1  SGN1        0.1076
     26  O1       -39.7060   25.9220  -33.5120 O.3     1  SGN1       -0.3656
     27  C5       -37.2990   27.1790  -33.6210 C.3     1  SGN1        0.1133
     28  S1       -39.6120   22.9280  -32.0940 S.3     1  SGN1       -0.0198
     29  O3       -33.8700   31.9960  -30.1510 O.3     2  IDS2       -0.3889
     30  O6       -36.7060   27.9890  -35.8130 O.3     1  SGN1       -0.3924
     31  C4       -36.8460   27.1180  -32.1710 C.3     1  SGN1        0.1175
     32 H         -35.3315   27.4333  -34.3945 H       1  SGN1        0.0584
     33 H         -36.1746   28.9300  -34.0695 H       1  SGN1        0.0584
     34 H         -38.0071   25.6592  -29.4966 H       1  SGN1        0.2100
     35 H         -38.7853   26.8698  -31.3294 H       1  SGN1        0.0638
     36 H         -38.6487   24.2007  -33.8945 H       1  SGN1        0.0925
     37 H         -34.7941   28.5892  -32.2435 H       2  IDS2        0.0939
     38 H         -33.1746   30.2365  -30.9513 H       2  IDS2        0.0622
     39 H         -35.9315   28.6725  -26.7582 H       2  IDS2        0.2951
     40 H         -40.1707   23.9903  -33.7770 H       1  SGN1        0.2439
     41 H         -34.2829   30.5676  -28.2432 H       2  IDS2        0.0321
     42 H         -33.0178   29.5003  -28.7962 H       2  IDS2        0.0321
     43 H         -37.6966   29.7230  -32.3621 H       2  IDS2        0.2469
     44 H         -37.9612   22.8851  -33.3361 H       1  SGN1        0.2439
     45 H         -39.9183   24.8420  -31.0748 H       1  SGN1        0.1485
     46 H         -36.1132   30.5562  -30.3983 H       2  IDS2        0.0698
     47 H         -40.5892   21.1609  -31.6562 H       1  SGN1        0.2439
     48 H         -35.9859   29.1029  -28.9618 H       2  IDS2        0.0715
     49 H         -37.1882   24.3978  -31.9523 H       1  SGN1        0.0554
     50 H         -39.5653   26.7902  -33.1030 H       1  SGN1        0.2125
     51 H         -38.2400   27.6861  -33.6684 H       1  SGN1        0.0647
     52 H         -34.6114   32.3110  -29.6106 H       2  IDS2        0.2099
     53 H         -36.7974   27.0875  -36.1592 H       1  SGN1        0.2095
     54 H         -35.8910   26.6383  -32.1195 H       1  SGN1        0.0650
@<TRIPOS>BOND
     1     1    27    1
     2     1    30    1
     3     2     3    1
     4     3    25    1
     5     3    31    1
     6     4    23    1
     7     4    17    2
     8     4    11    1
     9     5    13    2
    10     6    25    1
    11     6    26    1
    12     6    18    1
    13     7    20    1
    14     7     9    1
    15     7     8    1
    16     8    23    1
    17     9    31    1
    18    10    20    1
    19    10    14    1
    20    10    29    1
    21    12    28    1
    22    13    22    1
    23    13    24    2
    24    13    15    1
    25    14    23    1
    26    16    28    1
    27    18    27    1
    28    19    25    1
    29    19    28    1
    30    20    22    1
    31    21    28    1
    32    27    31    1
    33     1    32    1
    34     1    33    1
    35     2    34    1
    36     3    35    1
    37     6    36    1
    38     7    37    1
    39    10    38    1
    40    11    39    1
    41    12    40    1
    42    14    41    1
    43    14    42    1
    44    15    43    1
    45    16    44    1
    46    19    45    1
    47    20    46    1
    48    21    47    1
    49    23    48    1
    50    25    49    1
    51    26    50    1
    52    27    51    1
    53    29    52    1
    54    30    53    1
    55    31    54    1
