@<TRIPOS>MOLECULE
3B9F_LIGAND_1_uncharged.pdb
 50 51 0 0 0
SMALL
GASTEIGER

@<TRIPOS>ATOM
      1  C6       -36.2750   27.9350  -34.4500 C.3     1  SGN1        0.0730
      2  O3       -37.3620   26.1600  -30.0200 O.3     1  SGN1       -0.3874
      3  C3       -37.8600   26.3330  -31.3550 C.3     1  SGN1        0.1055
      4  C6       -34.7000   27.7680  -27.8900 C.2     2  IDS2        0.3341
      5  O3S      -37.4030   32.2480  -31.5130 O.2     2  IDS2       -0.3452
      6  C1       -38.4920   25.1580  -33.4430 C.3     1  SGN1        0.1762
      7  C1       -35.3840   28.8000  -31.3760 C.3     2  IDS2        0.1913
      8  O5       -34.8490   28.0220  -30.2920 O.3     2  IDS2       -0.3340
      9  O1       -36.7490   28.4490  -31.6420 O.3     2  IDS2       -0.3401
     10  C3       -33.9940   30.5800  -30.3550 C.3     2  IDS2        0.0912
     11  O62      -35.3120   27.9720  -26.8180 O.3     2  IDS2       -0.4788
     12  O2S      -40.6020   23.3610  -33.1780 O.3     1  SGN1       -0.0534
     13  S        -36.7270   31.5200  -32.6770 S.3     2  IDS2       -0.0004
     14  C4       -33.9970   29.8760  -29.0080 C.3     2  IDS2        0.0128
     15  O2S      -37.5910   30.3340  -33.1080 O.3     2  IDS2       -0.2682
     16  O3S      -38.3970   22.2580  -32.7380 O.3     1  SGN1       -0.0534
     17  O61      -33.8550   26.8720  -28.0950 O.2     2  IDS2       -0.2481
     18  O5       -37.4480   25.8500  -34.1440 O.3     1  SGN1       -0.3416
     19  N        -39.1200   24.2300  -31.2440 N.3     1  SGN1       -0.1775
     20  C2       -35.3110   30.2840  -31.0520 C.3     2  IDS2        0.1620
     21  O1S      -40.2960   21.9360  -31.1520 O.3     1  SGN1       -0.0534
     22  O2       -35.4370   31.0490  -32.2600 O.3     2  IDS2       -0.2436
     23  C5       -34.9890   28.7240  -29.0490 C.3     2  IDS2        0.1603
     24  O1S      -36.5610   32.4830  -33.8540 O.2     2  IDS2       -0.3452
     25  C2       -38.0910   24.9710  -31.9890 C.3     1  SGN1        0.1079
     26  O1       -39.7060   25.9220  -33.5120 O.3     1  SGN1       -0.3656
     27  C5       -37.2990   27.1790  -33.6210 C.3     1  SGN1        0.1133
     28  S1       -39.6120   22.9280  -32.0940 S.3     1  SGN1        0.0767
     29  O3       -33.8700   31.9960  -30.1510 O.3     2  IDS2       -0.3889
     30  O6       -36.7060   27.9890  -35.8130 O.3     1  SGN1       -0.3924
     31  C4       -36.8460   27.1180  -32.1710 C.3     1  SGN1        0.1175
     32  H        -35.3310   27.4330  -34.3950 H       1  SGN1        0.0584
     33  H        -36.1750   28.9300  -34.0690 H       1  SGN1        0.0584
     34  H        -38.0070   25.6590  -29.4970 H       1  SGN1        0.2100
     35  H        -38.7850   26.8700  -31.3290 H       1  SGN1        0.0638
     36  H        -38.6490   24.2010  -33.8950 H       1  SGN1        0.0925
     37  H        -34.7940   28.5890  -32.2430 H       2  IDS2        0.0939
     38  H        -33.1750   30.2360  -30.9510 H       2  IDS2        0.0622
     39  H        -35.9310   28.6720  -26.7580 H       2  IDS2        0.2951
     40  H        -34.2830   30.5680  -28.2430 H       2  IDS2        0.0321
     41  H        -33.0180   29.5000  -28.7960 H       2  IDS2        0.0321
     42  H        -39.9180   24.8420  -31.0750 H       1  SGN1        0.1487
     43  H        -36.1130   30.5560  -30.3980 H       2  IDS2        0.0697
     44  H        -35.9860   29.1030  -28.9620 H       2  IDS2        0.0715
     45  H        -37.1880   24.3980  -31.9520 H       1  SGN1        0.0554
     46  H        -39.5650   26.7900  -33.1030 H       1  SGN1        0.2125
     47  H        -38.2400   27.6860  -33.6680 H       1  SGN1        0.0647
     48  H        -34.6110   32.3110  -29.6110 H       2  IDS2        0.2099
     49  H        -36.7970   27.0870  -36.1590 H       1  SGN1        0.2095
     50  H        -35.8910   26.6380  -32.1200 H       1  SGN1        0.0650
@<TRIPOS>BOND
     1     1    27    1
     2     1    30    1
     3     1    32    1
     4     1    33    1
     5     2     3    1
     6     2    34    1
     7     3    25    1
     8     3    31    1
     9     3    35    1
    10     4    23    1
    11     4    17    2
    12     4    11    1
    13     5    13    2
    14     6    25    1
    15     6    26    1
    16     6    18    1
    17     6    36    1
    18     7    20    1
    19     7     9    1
    20     7     8    1
    21     7    37    1
    22     8    23    1
    23     9    31    1
    24    10    20    1
    25    10    14    1
    26    10    29    1
    27    10    38    1
    28    11    39    1
    29    12    28    1
    30    13    22    1
    31    13    24    2
    32    13    15    1
    33    14    23    1
    34    14    40    1
    35    14    41    1
    36    16    28    1
    37    18    27    1
    38    19    25    1
    39    19    28    1
    40    19    42    1
    41    20    22    1
    42    20    43    1
    43    21    28    1
    44    23    44    1
    45    25    45    1
    46    26    46    1
    47    27    31    1
    48    27    47    1
    49    29    48    1
    50    30    49    1
    51    31    50    1
