@<TRIPOS>MOLECULE
3C9E_LIGAND_1_uncharged.pdb
 152 157 0 0 0
SMALL
GASTEIGER

@<TRIPOS>ATOM
      1  OSB       17.2830   41.8190   43.5380 O.2   302  ASG302     -0.3452
      2  C1        20.1190   37.1340   43.0060 C.3   302  ASG302      0.1808
      3  C6        15.0260   39.2170   53.8030 C.3   304  ASG304      0.0731
      4  C6         9.4670   34.3870   49.5730 C.2   305  BDP305      0.3367
      5  N         13.5330   34.5730   50.7860 N.am  304  ASG304     -0.3053
      6  O6A       14.3590   35.3750   47.1090 O.2   303  BDP303     -0.2480
      7  S         14.1910   36.4420   56.0900 S.3   304  ASG304     -0.0004
      8  C1        18.3790   37.3170   47.2670 C.3   303  BDP303      0.1890
      9  C5        16.2450   36.4440   47.9960 C.3   303  BDP303      0.1863
     10  C2        18.7080   37.8290   48.6600 C.3   303  BDP303      0.1342
     11  C6        17.2940   39.2140   41.8220 C.3   302  ASG302      0.0731
     12  C3         4.3990   37.2300   49.0640 C.3   306  ASG306      0.0014
     13  C6         6.4000   40.3960   50.2140 C.3   306  ASG306      0.0730
     14  O7         4.8050   33.9720   51.7090 O.2   306  ASG306     -0.2761
     15  O6B       14.1410   37.4960   47.8660 O.3   303  BDP303     -0.4788
     16  C4         8.6690   35.8810   51.4920 C.3   305  BDP305      0.1266
     17  O6A        8.6940   33.4850   49.1670 O.2   305  BDP305     -0.2480
     18  O7        15.3520   33.1590   50.6750 O.2   304  ASG304     -0.2761
     19  C1        14.8560   36.6550   51.1000 C.3   304  ASG304      0.1808
     20  O5         6.8330   38.0710   50.5440 O.3   306  ASG306     -0.3413
     21  OSB       14.2680   37.8020   56.5930 O.2   304  ASG304     -0.3452
     22  C7        14.2270   33.4670   50.3170 C.2   304  ASG304      0.2104
     23  C4         4.6170   38.6810   49.6250 C.3   306  ASG306      0.1158
     24  O2        10.2710   36.2820   54.8550 O.3   305  BDP305     -0.3841
     25  O4        18.8230   39.9930   44.2290 O.3   302  ASG302     -0.2460
     26  O5        19.3480   38.0790   42.2290 O.3   302  ASG302     -0.3411
     27  C1        23.5900   36.0920   39.2020 C.3   301  BDP301      0.1860
     28  C4        16.5250   36.9660   49.4310 C.3   303  BDP303      0.1266
     29  O3        18.9570   38.1500   46.3250 O.3   302  ASG302     -0.3407
     30  C4        18.0830   38.7570   44.2020 C.3   302  ASG302      0.1419
     31  C2        20.2450   37.5650   44.4600 C.3   302  ASG302      0.1027
     32  C3        21.8280   37.4640   40.1560 C.3   301  BDP301      0.1149
     33  O6         7.8010   40.6330   50.3420 O.3   306  ASG306     -0.3924
     34  O5        23.4470   35.1050   40.2690 O.3   301  BDP301     -0.3317
     35  O3         7.9770   37.1730   53.4490 O.3   305  BDP305     -0.3864
     36  O5        10.8260   34.7400   51.5360 O.3   305  BDP305     -0.3315
     37  C2        22.2920   36.7740   38.8820 C.3   301  BDP301      0.1340
     38  C8        22.7460   35.6960   46.6890 C.3   302  ASG302      0.0122
     39  C3        18.8420   37.7010   45.0230 C.3   302  ASG302      0.1155
     40  C2         5.2820   36.2740   50.0400 C.3   306  ASG306      0.0765
     41  O5        16.9450   37.2860   47.0380 O.3   303  BDP303     -0.3315
     42  C5        18.0080   38.2590   42.7440 C.3   302  ASG302      0.1155
     43  N          5.2220   34.8460   49.5950 N.am  306  ASG306     -0.3078
     44  O3        20.5950   38.1380   39.8960 O.3   301  BDP301     -0.3864
     45  O2        20.1280   37.8130   48.8350 O.3   303  BDP303     -0.3841
     46  O4        15.8990   36.1360   50.3490 O.3   303  BDP303     -0.3403
     47  OSA       17.1710   41.0600   45.7810 O.2   302  ASG302     -0.3452
     48  O3        18.3330   37.4270   51.0010 O.3   303  BDP303     -0.3864
     49  C3         8.6910   36.0090   53.0270 C.3   305  BDP305      0.1149
     50  C4        13.6100   37.1020   53.6670 C.3   304  ASG304      0.1419
     51  C7        22.1310   36.8830   45.9850 C.2   302  ASG302      0.2104
     52  O4        14.5320   36.4190   54.5310 O.3   304  ASG304     -0.2460
     53  C4        21.6240   36.3950   41.2590 C.3   301  BDP301      0.1266
     54  C6        22.8560   34.5600   42.5400 C.2   301  BDP301      0.3367
     55  N         21.0130   36.5410   45.2290 N.am  302  ASG302     -0.3053
     56  C1        10.9400   34.9300   52.9790 C.3   305  BDP305      0.1890
     57  O4        21.3640   37.0470   42.4490 O.3   301  BDP301     -0.3403
     58  O5        15.4020   37.6120   52.0550 O.3   304  ASG304     -0.3411
     59  O6A       23.3810   34.8270   43.6430 O.2   301  BDP301     -0.2480
     60  OSC       19.0270   42.3290   45.0480 O.3   302  ASG302     -0.2682
     61  O7        22.5800   38.0140   46.0840 O.2   302  ASG302     -0.2761
     62  C3        13.0040   36.1170   52.6460 C.3   304  ASG304      0.1155
     63  O6        16.9170   38.5580   40.6150 O.3   302  ASG302     -0.3924
     64  O6        15.3260   40.4180   53.0900 O.3   304  ASG304     -0.3924
     65  O6B       10.2390   35.1230   48.9300 O.3   305  BDP305     -0.4788
     66  OSC       15.1440   35.6090   56.7950 O.3   304  ASG304     -0.2682
     67  C3        18.0390   36.9330   49.6840 C.3   303  BDP303      0.1149
     68  O1        24.1590   35.3620   38.0100 O.3   301  BDP301     -0.3649
     69  C5        14.3680   38.2070   52.8950 C.3   304  ASG304      0.1155
     70  C5         6.1380   39.0100   49.6670 C.3   306  ASG306      0.1130
     71  C6        14.7650   36.4440   47.6200 C.2   303  BDP303      0.3367
     72  O4         4.1130   38.7240   50.9610 O.3   306  ASG306     -0.2486
     73  O6B       22.2710   33.5210   42.1620 O.3   301  BDP301     -0.4788
     74  C8        13.4400   32.6710   49.3010 C.3   304  ASG304      0.0122
     75  C2        14.1140   35.5130   51.8020 C.3   304  ASG304      0.1027
     76  OSC        1.7290   39.1170   50.3930 O.2   306  ASG306     -0.3452
     77  C8         4.9780   32.4540   49.8510 C.3   306  ASG306      0.0122
     78  OSB        2.4470   39.4920   52.6220 O.2   306  ASG306     -0.3452
     79  C1         6.7180   36.6950   50.1110 C.3   306  ASG306      0.1784
     80  S          2.8130   39.5970   51.2210 S.3   306  ASG306     -0.0005
     81  S         18.0560   41.3300   44.6630 S.3   302  ASG302     -0.0004
     82  C2        10.1430   36.1610   53.4360 C.3   305  BDP305      0.1342
     83  OSA        3.0960   40.9840   50.8980 O.3   306  ASG306     -0.2682
     84  OSA       12.8450   35.9350   56.3020 O.2   304  ASG304     -0.3452
     85  C7         4.9840   33.8130   50.5050 C.2   306  ASG306      0.2103
     86  O4         7.3780   35.8550   51.0030 O.3   305  BDP305     -0.3404
     87  O2        22.5220   37.7150   37.8360 O.3   301  BDP301     -0.3841
     88  C5        22.9480   35.6710   41.5020 C.3   301  BDP301      0.1863
     89  C5         9.4450   34.6090   51.0790 C.3   305  BDP305      0.1863
     90  O3        12.3030   35.0810   53.3150 O.3   304  ASG304     -0.3407
     91  H         19.6200   36.1880   42.9950 H     302  ASG302      0.0930
     92  H         15.9330   38.8030   54.1900 H     304  ASG304      0.0584
     93  H         14.3540   39.4500   54.6020 H     304  ASG304      0.0584
     94  H         12.6280   34.7470   50.4400 H     304  ASG304      0.1492
     95  H         18.7620   36.3220   47.1820 H     303  BDP303      0.0938
     96  H         16.5860   35.4300   47.9740 H     303  BDP303      0.0742
     97  H         18.3510   38.8300   48.7860 H     303  BDP303      0.0671
     98  H         17.9450   40.0310   41.5900 H     302  ASG302      0.0584
     99  H         16.4120   39.5710   42.3110 H     302  ASG302      0.0584
    100  H          3.3640   36.9600   49.1070 H     306  ASG306      0.0311
    101  H          4.6920   37.1440   48.0390 H     306  ASG306      0.0311
    102  H          5.9390   40.4870   51.1760 H     306  ASG306      0.0584
    103  H          5.9910   41.1160   49.5360 H     306  ASG306      0.0584
    104  H         14.5850   38.2240   48.2560 H     303  BDP303      0.2951
    105  H          9.1440   36.7400   51.0670 H     305  BDP305      0.0655
    106  H         14.1520   37.1630   50.4740 H     304  ASG304      0.0930
    107  H          4.1140   39.3880   48.9980 H     306  ASG306      0.0647
    108  H          9.7720   37.0560   55.1600 H     305  BDP305      0.2101
    109  H         24.2450   36.8810   39.5070 H     301  BDP301      0.0936
    110  H         16.1550   37.9650   49.5330 H     303  BDP303      0.0655
    111  H         17.1030   38.9120   44.6030 H     302  ASG302      0.0673
    112  H         20.7670   38.4960   44.5340 H     302  ASG302      0.0575
    113  H         22.5580   38.1750   40.4820 H     301  BDP301      0.0648
    114  H          8.1840   39.9860   50.9550 H     306  ASG306      0.2095
    115  H          7.0450   37.0910   53.1940 H     305  BDP305      0.2100
    116  H         21.5410   36.0870   38.5520 H     301  BDP301      0.0671
    117  H         22.1870   34.8140   46.4560 H     302  ASG302      0.0322
    118  H         22.7290   35.8600   47.7460 H     302  ASG302      0.0322
    119  H         23.7580   35.5730   46.3630 H     302  ASG302      0.0322
    120  H         18.3210   36.7670   44.9850 H     302  ASG302      0.0645
    121  H          4.8510   36.3720   51.0150 H     306  ASG306      0.0549
    122  H         17.4560   37.3430   42.7690 H     302  ASG302      0.0648
    123  H          5.3530   34.6310   48.6430 H     306  ASG306      0.1491
    124  H         19.9310   37.4950   39.6010 H     301  BDP301      0.2100
    125  H         20.4580   36.9080   48.7210 H     303  BDP303      0.2101
    126  H         19.2910   37.4010   51.1490 H     303  BDP303      0.2100
    127  H          8.2330   35.1510   53.4720 H     305  BDP305      0.0648
    128  H         12.8260   37.5250   54.2600 H     304  ASG304      0.0673
    129  H         20.8410   35.7300   40.9610 H     301  BDP301      0.0655
    130  H         20.7220   35.6010   45.2010 H     302  ASG302      0.1492
    131  H         10.5350   34.0740   53.4770 H     305  BDP305      0.0938
    132  H         12.3200   36.6490   52.0180 H     304  ASG304      0.0645
    133  H         17.7110   38.2300   40.1640 H     302  ASG302      0.2095
    134  H         15.9360   40.2180   52.3620 H     304  ASG304      0.2095
    135  H         10.7610   35.7590   49.3780 H     305  BDP305      0.2951
    136  H         18.3970   35.9280   49.6040 H     303  BDP303      0.0648
    137  H         23.5540   34.6510   37.7470 H     301  BDP301      0.2126
    138  H         13.6340   38.7150   52.3060 H     304  ASG304      0.0648
    139  H          6.4920   38.9430   48.6590 H     306  ASG306      0.0647
    140  H         21.9250   33.4680   41.2930 H     301  BDP301      0.2951
    141  H         12.4860   33.1310   49.1480 H     304  ASG304      0.0322
    142  H         13.3010   31.6730   49.6600 H     304  ASG304      0.0322
    143  H         13.9760   32.6450   48.3750 H     304  ASG304      0.0322
    144  H         14.7900   34.9610   52.4210 H     304  ASG304      0.0575
    145  H          4.7920   31.7030   50.5900 H     306  ASG306      0.0322
    146  H          5.9280   32.2750   49.3920 H     306  ASG306      0.0322
    147  H          4.2100   32.4200   49.1070 H     306  ASG306      0.0322
    148  H          7.1590   36.6230   49.1390 H     306  ASG306      0.0929
    149  H         10.5220   37.0480   52.9740 H     305  BDP305      0.0671
    150  H         23.2010   38.3490   38.1150 H     301  BDP301      0.2101
    151  H         23.6160   36.4150   41.8820 H     301  BDP301      0.0741
    152  H          8.9460   33.7740   51.5250 H     305  BDP305      0.0742
@<TRIPOS>BOND
     1     1    81    2
     2     2    57    1
     3     2    31    1
     4     2    26    1
     5     2    91    1
     6     3    69    1
     7     3    64    1
     8     3    92    1
     9     3    93    1
    10     4    89    1
    11     4    17    2
    12     4    65    1
    13     5    75    1
    14     5    22   am
    15     5    94    1
    16     6    71    2
    17     7    52    1
    18     7    84    2
    19     7    21    2
    20     7    66    1
    21     8    29    1
    22     8    10    1
    23     8    41    1
    24     8    95    1
    25     9    28    1
    26     9    71    1
    27     9    41    1
    28     9    96    1
    29    10    67    1
    30    10    45    1
    31    10    97    1
    32    11    42    1
    33    11    63    1
    34    11    98    1
    35    11    99    1
    36    12    40    1
    37    12    23    1
    38    12   100    1
    39    12   101    1
    40    13    70    1
    41    13    33    1
    42    13   102    1
    43    13   103    1
    44    14    85    2
    45    15    71    1
    46    15   104    1
    47    16    49    1
    48    16    89    1
    49    16    86    1
    50    16   105    1
    51    18    22    2
    52    19    46    1
    53    19    75    1
    54    19    58    1
    55    19   106    1
    56    20    79    1
    57    20    70    1
    58    22    74    1
    59    23    70    1
    60    23    72    1
    61    23   107    1
    62    24    82    1
    63    24   108    1
    64    25    30    1
    65    25    81    1
    66    26    42    1
    67    27    37    1
    68    27    34    1
    69    27    68    1
    70    27   109    1
    71    28    67    1
    72    28    46    1
    73    28   110    1
    74    29    39    1
    75    30    39    1
    76    30    42    1
    77    30   111    1
    78    31    39    1
    79    31    55    1
    80    31   112    1
    81    32    37    1
    82    32    53    1
    83    32    44    1
    84    32   113    1
    85    33   114    1
    86    34    88    1
    87    35    49    1
    88    35   115    1
    89    36    56    1
    90    36    89    1
    91    37    87    1
    92    37   116    1
    93    38    51    1
    94    38   117    1
    95    38   118    1
    96    38   119    1
    97    39   120    1
    98    40    79    1
    99    40    43    1
   100    40   121    1
   101    42   122    1
   102    43    85   am
   103    43   123    1
   104    44   124    1
   105    45   125    1
   106    47    81    2
   107    48    67    1
   108    48   126    1
   109    49    82    1
   110    49   127    1
   111    50    62    1
   112    50    69    1
   113    50    52    1
   114    50   128    1
   115    51    55   am
   116    51    61    2
   117    53    88    1
   118    53    57    1
   119    53   129    1
   120    54    88    1
   121    54    59    2
   122    54    73    1
   123    55   130    1
   124    56    90    1
   125    56    82    1
   126    56   131    1
   127    58    69    1
   128    60    81    1
   129    62    75    1
   130    62    90    1
   131    62   132    1
   132    63   133    1
   133    64   134    1
   134    65   135    1
   135    67   136    1
   136    68   137    1
   137    69   138    1
   138    70   139    1
   139    72    80    1
   140    73   140    1
   141    74   141    1
   142    74   142    1
   143    74   143    1
   144    75   144    1
   145    76    80    2
   146    77    85    1
   147    77   145    1
   148    77   146    1
   149    77   147    1
   150    78    80    2
   151    79    86    1
   152    79   148    1
   153    80    83    1
   154    82   149    1
   155    87   150    1
   156    88   151    1
   157    89   152    1
