@<TRIPOS>MOLECULE
3C9E_LIGAND_1.pdb
 155 160 0 0 0
SMALL
GASTEIGER

@<TRIPOS>ATOM
      1  OSB       17.2830   41.8190   43.5380 O.2   302  ASG302     -0.1181
      2  C1        20.1190   37.1340   43.0060 C.3   302  ASG302      0.1808
      3  C6        15.0260   39.2170   53.8030 C.3   304  ASG304      0.0731
      4  C6         9.4670   34.3870   49.5730 C.2   305  BDP305      0.3367
      5  N         13.5330   34.5730   50.7860 N.am  304  ASG304     -0.3053
      6  O6A       14.3590   35.3750   47.1090 O.2   303  BDP303     -0.2480
      7  S         14.1910   36.4420   56.0900 S.O2  304  ASG304      0.2079
      8  C1        18.3790   37.3170   47.2670 C.3   303  BDP303      0.1890
      9  C5        16.2450   36.4440   47.9960 C.3   303  BDP303      0.1863
     10  C2        18.7080   37.8290   48.6600 C.3   303  BDP303      0.1342
     11  C6        17.2940   39.2140   41.8220 C.3   302  ASG302      0.0731
     12  C3         4.3990   37.2300   49.0640 C.3   306  ASG306      0.0015
     13  C6         6.4000   40.3960   50.2140 C.3   306  ASG306      0.0730
     14  O7         4.8050   33.9720   51.7090 O.2   306  ASG306     -0.2761
     15  O6B       14.1410   37.4960   47.8660 O.3   303  BDP303     -0.4788
     16  C4         8.6690   35.8810   51.4920 C.3   305  BDP305      0.1266
     17  O6A        8.6940   33.4850   49.1670 O.2   305  BDP305     -0.2480
     18  O7        15.3520   33.1590   50.6750 O.2   304  ASG304     -0.2761
     19  C1        14.8560   36.6550   51.1000 C.3   304  ASG304      0.1808
     20  O5         6.8330   38.0710   50.5440 O.3   306  ASG306     -0.3413
     21  OSB       14.2680   37.8020   56.5930 O.2   304  ASG304     -0.1181
     22  C7        14.2270   33.4670   50.3170 C.2   304  ASG304      0.2104
     23  C4         4.6170   38.6810   49.6250 C.3   306  ASG306      0.1198
     24  O2        10.2710   36.2820   54.8550 O.3   305  BDP305     -0.3841
     25  O4        18.8230   39.9930   44.2290 O.3   302  ASG302     -0.2071
     26  O5        19.3480   38.0790   42.2290 O.3   302  ASG302     -0.3411
     27  C1        23.5900   36.0920   39.2020 C.3   301  BDP301      0.1860
     28  C4        16.5250   36.9660   49.4310 C.3   303  BDP303      0.1266
     29  O3        18.9570   38.1500   46.3250 O.3   302  ASG302     -0.3407
     30  C4        18.0830   38.7570   44.2020 C.3   302  ASG302      0.1459
     31  C2        20.2450   37.5650   44.4600 C.3   302  ASG302      0.1027
     32  C3        21.8280   37.4640   40.1560 C.3   301  BDP301      0.1149
     33  O6         7.8010   40.6330   50.3420 O.3   306  ASG306     -0.3924
     34  O5        23.4470   35.1050   40.2690 O.3   301  BDP301     -0.3317
     35  O3         7.9770   37.1730   53.4490 O.3   305  BDP305     -0.3864
     36  O5        10.8260   34.7400   51.5360 O.3   305  BDP305     -0.3315
     37  C2        22.2920   36.7740   38.8820 C.3   301  BDP301      0.1340
     38  C8        22.7460   35.6960   46.6890 C.3   302  ASG302      0.0122
     39  C3        18.8420   37.7010   45.0230 C.3   302  ASG302      0.1156
     40  C2         5.2820   36.2740   50.0400 C.3   306  ASG306      0.0765
     41  O5        16.9450   37.2860   47.0380 O.3   303  BDP303     -0.3315
     42  C5        18.0080   38.2590   42.7440 C.3   302  ASG302      0.1156
     43  N          5.2220   34.8460   49.5950 N.am  306  ASG306     -0.3078
     44  O3        20.5950   38.1380   39.8960 O.3   301  BDP301     -0.3864
     45  O2        20.1280   37.8130   48.8350 O.3   303  BDP303     -0.3841
     46  O4        15.8990   36.1360   50.3490 O.3   303  BDP303     -0.3403
     47  OSA       17.1710   41.0600   45.7810 O.2   302  ASG302     -0.1181
     48  O3        18.3330   37.4270   51.0010 O.3   303  BDP303     -0.3864
     49  C3         8.6910   36.0090   53.0270 C.3   305  BDP305      0.1149
     50  C4        13.6100   37.1020   53.6670 C.3   304  ASG304      0.1459
     51  C7        22.1310   36.8830   45.9850 C.2   302  ASG302      0.2104
     52  O4        14.5320   36.4190   54.5310 O.3   304  ASG304     -0.2071
     53  C4        21.6240   36.3950   41.2590 C.3   301  BDP301      0.1266
     54  C6        22.8560   34.5600   42.5400 C.2   301  BDP301      0.3367
     55  N         21.0130   36.5410   45.2290 N.am  302  ASG302     -0.3053
     56  C1        10.9400   34.9300   52.9790 C.3   305  BDP305      0.1890
     57  O4        21.3640   37.0470   42.4490 O.3   301  BDP301     -0.3403
     58  O5        15.4020   37.6120   52.0550 O.3   304  ASG304     -0.3411
     59  O6A       23.3810   34.8270   43.6430 O.2   301  BDP301     -0.2480
     60  OSC       19.0270   42.3290   45.0480 O.3   302  ASG302     -0.2311
     61  O7        22.5800   38.0140   46.0840 O.2   302  ASG302     -0.2761
     62  C3        13.0040   36.1170   52.6460 C.3   304  ASG304      0.1156
     63  O6        16.9170   38.5580   40.6150 O.3   302  ASG302     -0.3924
     64  O6        15.3260   40.4180   53.0900 O.3   304  ASG304     -0.3924
     65  O6B       10.2390   35.1230   48.9300 O.3   305  BDP305     -0.4788
     66  OSC       15.1440   35.6090   56.7950 O.3   304  ASG304     -0.2311
     67  C3        18.0390   36.9330   49.6840 C.3   303  BDP303      0.1149
     68  O1        24.1590   35.3620   38.0100 O.3   301  BDP301     -0.3649
     69  C5        14.3680   38.2070   52.8950 C.3   304  ASG304      0.1156
     70  C5         6.1380   39.0100   49.6670 C.3   306  ASG306      0.1131
     71  C6        14.7650   36.4440   47.6200 C.2   303  BDP303      0.3367
     72  O4         4.1130   38.7240   50.9610 O.3   306  ASG306     -0.2098
     73  O6B       22.2710   33.5210   42.1620 O.3   301  BDP301     -0.4788
     74  C8        13.4400   32.6710   49.3010 C.3   304  ASG304      0.0122
     75  C2        14.1140   35.5130   51.8020 C.3   304  ASG304      0.1027
     76  OSC        1.7290   39.1170   50.3930 O.2   306  ASG306     -0.1181
     77  C8         4.9780   32.4540   49.8510 C.3   306  ASG306      0.0122
     78  OSB        2.4470   39.4920   52.6220 O.2   306  ASG306     -0.1181
     79  C1         6.7180   36.6950   50.1110 C.3   306  ASG306      0.1784
     80  S          2.8130   39.5970   51.2210 S.O2  306  ASG306      0.2078
     81  S         18.0560   41.3300   44.6630 S.O2  302  ASG302      0.2079
     82  C2        10.1430   36.1610   53.4360 C.3   305  BDP305      0.1342
     83  OSA        3.0960   40.9840   50.8980 O.3   306  ASG306     -0.2311
     84  OSA       12.8450   35.9350   56.3020 O.2   304  ASG304     -0.1181
     85  C7         4.9840   33.8130   50.5050 C.2   306  ASG306      0.2103
     86  O4         7.3780   35.8550   51.0030 O.3   305  BDP305     -0.3404
     87  O2        22.5220   37.7150   37.8360 O.3   301  BDP301     -0.3841
     88  C5        22.9480   35.6710   41.5020 C.3   301  BDP301      0.1863
     89  C5         9.4450   34.6090   51.0790 C.3   305  BDP305      0.1863
     90  O3        12.3030   35.0810   53.3150 O.3   304  ASG304     -0.3407
     91 H          19.6197   36.1877   42.9945 H     302  ASG302      0.0930
     92 H          15.9333   38.8025   54.1901 H     304  ASG304      0.0584
     93 H          14.3536   39.4504   54.6019 H     304  ASG304      0.0584
     94 H          12.6278   34.7474   50.4404 H     304  ASG304      0.1492
     95 H          18.7622   36.3216   47.1823 H     303  BDP303      0.0938
     96 H          16.5860   35.4300   47.9742 H     303  BDP303      0.0742
     97 H          18.3512   38.8298   48.7865 H     303  BDP303      0.0671
     98 H          17.9445   40.0312   41.5897 H     302  ASG302      0.0584
     99 H          16.4116   39.5708   42.3109 H     302  ASG302      0.0584
    100 H           3.3644   36.9603   49.1066 H     306  ASG306      0.0311
    101 H           4.6924   37.1437   48.0386 H     306  ASG306      0.0311
    102 H           5.9395   40.4866   51.1756 H     306  ASG306      0.0584
    103 H           5.9907   41.1156   49.5361 H     306  ASG306      0.0584
    104 H          14.5845   38.2236   48.2557 H     303  BDP303      0.2951
    105 H           9.1437   36.7405   51.0668 H     305  BDP305      0.0655
    106 H          14.1520   37.1626   50.4742 H     304  ASG304      0.0930
    107 H           4.1142   39.3876   48.9983 H     306  ASG306      0.0648
    108 H           9.7724   37.0562   55.1598 H     305  BDP305      0.2101
    109 H          24.2454   36.8809   39.5069 H     301  BDP301      0.0936
    110 H          16.1549   37.9647   49.5330 H     303  BDP303      0.0655
    111 H          17.1033   38.9120   44.6033 H     302  ASG302      0.0675
    112 H          20.7669   38.4962   44.5337 H     302  ASG302      0.0575
    113 H          22.5580   38.1753   40.4816 H     301  BDP301      0.0648
    114 H           8.1837   39.9859   50.9550 H     306  ASG306      0.2095
    115 H           7.0447   37.0906   53.1940 H     305  BDP305      0.2100
    116 H          21.5407   36.0874   38.5518 H     301  BDP301      0.0671
    117 H          22.1866   34.8141   46.4562 H     302  ASG302      0.0322
    118 H          22.7292   35.8603   47.7462 H     302  ASG302      0.0322
    119 H          23.7578   35.5730   46.3632 H     302  ASG302      0.0322
    120 H          18.3213   36.7670   44.9852 H     302  ASG302      0.0645
    121 H           4.8512   36.3718   51.0146 H     306  ASG306      0.0549
    122 H          17.4561   37.3426   42.7687 H     302  ASG302      0.0648
    123 H           5.3527   34.6307   48.6433 H     306  ASG306      0.1491
    124 H          19.9312   37.4953   39.6006 H     301  BDP301      0.2100
    125 H          20.4576   36.9078   48.7214 H     303  BDP303      0.2101
    126 H          19.2912   37.4015   51.1494 H     303  BDP303      0.2100
    127 H           8.2329   35.1507   53.4723 H     305  BDP305      0.0648
    128 H          12.8265   37.5254   54.2600 H     304  ASG304      0.0675
    129 H          20.8410   35.7296   40.9607 H     301  BDP301      0.0655
    130 H          20.7217   35.6010   45.2007 H     302  ASG302      0.1492
    131 H          10.5348   34.0741   53.4771 H     305  BDP305      0.0938
    132 H          19.6187   42.5096   44.3009 H     302  ASG302      0.2469
    133 H          12.3203   36.6488   52.0178 H     304  ASG304      0.0645
    134 H          17.7106   38.2304   40.1636 H     302  ASG302      0.2095
    135 H          15.9356   40.2184   52.3624 H     304  ASG304      0.2095
    136 H          10.7610   35.7594   49.3777 H     305  BDP305      0.2951
    137 H          15.0913   34.7010   56.4579 H     304  ASG304      0.2469
    138 H          18.3967   35.9278   49.6037 H     303  BDP303      0.0648
    139 H          23.5536   34.6513   37.7469 H     301  BDP301      0.2126
    140 H          13.6336   38.7153   52.3058 H     304  ASG304      0.0648
    141 H           6.4916   38.9432   48.6593 H     306  ASG306      0.0647
    142 H          21.9247   33.4681   41.2930 H     301  BDP301      0.2951
    143 H          12.4863   33.1314   49.1484 H     304  ASG304      0.0322
    144 H          13.3007   31.6728   49.6603 H     304  ASG304      0.0322
    145 H          13.9759   32.6454   48.3752 H     304  ASG304      0.0322
    146 H          14.7903   34.9613   52.4210 H     304  ASG304      0.0575
    147 H           4.7921   31.7032   50.5904 H     306  ASG306      0.0322
    148 H           5.9277   32.2750   49.3918 H     306  ASG306      0.0322
    149 H           4.2099   32.4197   49.1068 H     306  ASG306      0.0322
    150 H           7.1589   36.6228   49.1387 H     306  ASG306      0.0929
    151 H          10.5224   37.0485   52.9742 H     305  BDP305      0.0671
    152 H           3.3406   41.0546   49.9620 H     306  ASG306      0.2469
    153 H          23.2015   38.3486   38.1148 H     301  BDP301      0.2101
    154 H          23.6165   36.4151   41.8820 H     301  BDP301      0.0741
    155 H           8.9460   33.7740   51.5247 H     305  BDP305      0.0742
@<TRIPOS>BOND
     1     1    81    2
     2     2    57    1
     3     2    31    1
     4     2    26    1
     5     3    69    1
     6     3    64    1
     7     4    89    1
     8     4    17    2
     9     4    65    1
    10     5    75    1
    11     5    22   am
    12     6    71    2
    13     7    52    1
    14     7    84    2
    15     7    21    2
    16     7    66    1
    17     8    29    1
    18     8    10    1
    19     8    41    1
    20     9    28    1
    21     9    71    1
    22     9    41    1
    23    10    67    1
    24    10    45    1
    25    11    42    1
    26    11    63    1
    27    12    40    1
    28    12    23    1
    29    13    70    1
    30    13    33    1
    31    14    85    2
    32    15    71    1
    33    16    49    1
    34    16    89    1
    35    16    86    1
    36    18    22    2
    37    19    46    1
    38    19    75    1
    39    19    58    1
    40    20    79    1
    41    20    70    1
    42    22    74    1
    43    23    70    1
    44    23    72    1
    45    24    82    1
    46    25    30    1
    47    25    81    1
    48    26    42    1
    49    27    37    1
    50    27    34    1
    51    27    68    1
    52    28    67    1
    53    28    46    1
    54    29    39    1
    55    30    39    1
    56    30    42    1
    57    31    39    1
    58    31    55    1
    59    32    37    1
    60    32    53    1
    61    32    44    1
    62    34    88    1
    63    35    49    1
    64    36    56    1
    65    36    89    1
    66    37    87    1
    67    38    51    1
    68    40    79    1
    69    40    43    1
    70    43    85   am
    71    47    81    2
    72    48    67    1
    73    49    82    1
    74    50    62    1
    75    50    69    1
    76    50    52    1
    77    51    55   am
    78    51    61    2
    79    53    88    1
    80    53    57    1
    81    54    88    1
    82    54    59    2
    83    54    73    1
    84    56    90    1
    85    56    82    1
    86    58    69    1
    87    60    81    1
    88    62    75    1
    89    62    90    1
    90    72    80    1
    91    76    80    2
    92    77    85    1
    93    78    80    2
    94    79    86    1
    95    80    83    1
    96     2    91    1
    97     3    92    1
    98     3    93    1
    99     5    94    1
   100     8    95    1
   101     9    96    1
   102    10    97    1
   103    11    98    1
   104    11    99    1
   105    12   100    1
   106    12   101    1
   107    13   102    1
   108    13   103    1
   109    15   104    1
   110    16   105    1
   111    19   106    1
   112    23   107    1
   113    24   108    1
   114    27   109    1
   115    28   110    1
   116    30   111    1
   117    31   112    1
   118    32   113    1
   119    33   114    1
   120    35   115    1
   121    37   116    1
   122    38   117    1
   123    38   118    1
   124    38   119    1
   125    39   120    1
   126    40   121    1
   127    42   122    1
   128    43   123    1
   129    44   124    1
   130    45   125    1
   131    48   126    1
   132    49   127    1
   133    50   128    1
   134    53   129    1
   135    55   130    1
   136    56   131    1
   137    60   132    1
   138    62   133    1
   139    63   134    1
   140    64   135    1
   141    65   136    1
   142    66   137    1
   143    67   138    1
   144    68   139    1
   145    69   140    1
   146    70   141    1
   147    73   142    1
   148    74   143    1
   149    74   144    1
   150    74   145    1
   151    75   146    1
   152    77   147    1
   153    77   148    1
   154    77   149    1
   155    79   150    1
   156    82   151    1
   157    83   152    1
   158    87   153    1
   159    88   154    1
   160    89   155    1
