@<TRIPOS>MOLECULE
3DY0_LIGAND_1.pdb
 130 134 0 0 0
SMALL
GASTEIGER

@<TRIPOS>ATOM
      1  C6        -1.1700   23.3710  -23.8070 C.2   501  IDS501      0.3367
      2  O5S        5.7910   26.4110  -27.0230 O.2   502  SGN502     -0.1181
      3  O3S        7.2640   25.4190  -22.0380 O.2   503  IDS503     -0.1181
      4  C3         3.3510   21.3800  -24.6580 C.3   502  SGN502      0.1055
      5  O61        8.0310   18.7380  -23.7910 O.2   503  IDS503     -0.2480
      6  C6         9.9810   16.3430  -21.5090 C.3   504  SGN504      0.1076
      7  O6S       10.7220   13.3790  -21.0660 O.2   504  SGN504     -0.1181
      8  C4         4.4120   22.4770  -24.4110 C.3   502  SGN502      0.1176
      9  N         10.2180   21.5020  -19.0270 N.3   504  SGN504     -0.1845
     10  O3        15.4210   15.7540  -24.5880 O.3   535  IDS535     -0.3890
     11  C3        15.0960   16.0610  -23.2480 C.3   505  IDS505      0.0887
     12  C5         6.4900   19.9120  -22.3800 C.3   503  IDS503      0.1863
     13  O5S        8.7230   14.0180  -19.9290 O.2   504  SGN504     -0.1181
     14  C5         3.7400   23.8680  -24.6500 C.3   502  SGN502      0.1159
     15  O2        -1.6310   24.6260  -28.5110 O.3   501  IDS501     -0.3841
     16  O1S        7.3920   25.1390  -19.6700 O.2   503  IDS503     -0.1181
     17  O3         3.9390   20.1080  -24.4610 O.3   502  SGN502     -0.3874
     18  O2S       10.8470   22.9820  -17.1660 O.3   504  SGN504     -0.2626
     19  O2        12.7480   15.9480  -23.7400 O.3   505  IDS505     -0.3842
     20  O61       -1.8230   22.3650  -23.9780 O.2   501  IDS501     -0.2480
     21  O6         5.8630   24.8570  -25.2270 O.3   502  SGN502     -0.2131
     22  C3        11.3470   19.9130  -20.5980 C.3   504  SGN504      0.1055
     23  O1        -2.1540   26.9320  -25.8010 O.3   501  IDS501     -0.3649
     24  C4        11.4810   18.3980  -20.8910 C.3   504  SGN504      0.1176
     25  O5         3.1750   23.9370  -25.9860 O.3   502  SGN502     -0.3413
     26  N          1.8690   20.4820  -26.4500 N.3   502  SGN502     -0.1845
     27  S2         6.7010   25.9020  -26.0360 S.O2  502  SGN502      0.2076
     28  O2         7.6180   23.2290  -21.1040 O.3   503  IDS503     -0.2047
     29  C1         9.0010   19.4940  -19.7470 C.3   504  SGN504      0.1795
     30  C2        -1.2130   25.5990  -27.5710 C.3   501  IDS501      0.1340
     31  O3S        8.5590   22.3770  -17.4590 O.3   504  SGN504     -0.2626
     32  O5        14.5350   17.2790  -20.8990 O.3   505  IDS505     -0.3341
     33  C4        16.2280   16.9430  -22.6590 C.3   505  IDS505      0.0127
     34  O4S       10.7910   13.9090  -18.7350 O.3   504  SGN504     -0.2311
     35  O62       -0.6590   23.5350  -22.7240 O.3   501  IDS501     -0.4788
     36  O1        12.6160   18.3200  -21.7610 O.3   505  IDS505     -0.3402
     37  C5        10.0520   17.8520  -21.2290 C.3   504  SGN504      0.1159
     38  C1         2.2380   22.9060  -26.3300 C.3   502  SGN502      0.1795
     39  O1         1.0540   23.0490  -25.5720 O.3   502  SGN502     -0.3406
     40  O5        -2.2430   24.5940  -25.5960 O.3   501  IDS501     -0.3317
     41  O1S        3.2690   19.3150  -28.1590 O.3   502  SGN502     -0.2626
     42  C3         6.2990   21.3660  -20.3180 C.3   503  IDS503      0.1176
     43  O3         4.9420   21.0790  -20.0340 O.3   503  IDS503     -0.3863
     44  C6         4.6770   25.0800  -24.4870 C.3   502  SGN502      0.1076
     45  C2        10.3940   20.0850  -19.3940 C.3   504  SGN504      0.1078
     46  O62       16.7450   17.4590  -19.3510 O.2   505  IDS505     -0.2481
     47  O5         6.8560   21.0820  -23.1250 O.3   503  IDS503     -0.3314
     48  C6        16.7800   18.0630  -20.4040 C.2   505  IDS505      0.3341
     49  C2        13.7470   16.7950  -23.2030 C.3   505  IDS505      0.1317
     50  C1        13.3760   17.1430  -21.7380 C.3   505  IDS505      0.1888
     51  S1         9.9230   21.9250  -17.4630 S.3   504  SGN504     -0.0198
     52  C2         2.8720   21.5040  -26.1170 C.3   502  SGN502      0.1078
     53  C1        -2.3110   25.7130  -26.4780 C.3   501  IDS501      0.1860
     54  O1         4.8070   22.2230  -23.0640 O.3   503  IDS503     -0.3401
     55  O3S        1.5070   20.7480  -28.8470 O.3   502  SGN502     -0.2626
     56  S1         1.9250   19.7420  -27.9120 S.3   502  SGN502     -0.0198
     57  S          7.9160   24.7570  -20.9470 S.O2  503  IDS503      0.2080
     58  O2S        0.9970   18.6510  -27.8320 O.3   502  SGN502     -0.2626
     59  O2S        9.3450   24.8640  -21.0240 O.3   503  IDS503     -0.2311
     60  O62        6.5100   17.6020  -22.9580 O.3   503  IDS503     -0.4788
     61  C4         6.9490   20.0870  -20.9140 C.3   503  IDS503      0.1267
     62  C3         0.1840   25.1900  -27.0260 C.3   501  IDS501      0.1149
     63  C6         7.0460   18.6790  -23.0860 C.2   503  IDS503      0.3367
     64  S2        10.1530   14.1460  -19.9960 S.O2  504  SGN504      0.2076
     65  C2         6.3620   22.5980  -21.2650 C.3   503  IDS503      0.1684
     66  O4S        7.8080   25.2010  -26.6110 O.2   502  SGN502     -0.1181
     67  O61       17.6890   18.8430  -20.5740 O.3   505  IDS505     -0.4788
     68  O6        10.4030   15.6460  -20.3550 O.3   504  SGN504     -0.2131
     69  C5        -0.9880   24.4040  -24.9180 C.3   501  IDS501      0.1863
     70  C5        15.7250   17.8530  -21.4900 C.3   505  IDS505      0.1603
     71  O6S        7.1040   26.9060  -25.0950 O.3   502  SGN502     -0.2311
     72  O3        12.6190   20.4430  -20.2750 O.3   504  SGN504     -0.3874
     73  O1S       10.1000   20.7770  -16.6230 O.3   504  SGN504     -0.2626
     74  C1         6.1780   22.2830  -22.7750 C.3   503  IDS503      0.1916
     75  O5         9.1230   18.1260  -20.1450 O.3   504  SGN504     -0.3413
     76  C4         0.1140   24.0610  -25.9570 C.3   501  IDS501      0.1266
     77  O1         8.3640   20.2410  -20.7610 O.3   504  SGN504     -0.3406
     78  O3         0.7980   26.3180  -26.4350 O.3   501  IDS501     -0.3864
     79 H           2.5280   21.4932  -23.9836 H     502  SGN502      0.0638
     80 H          10.6214   16.0991  -22.3308 H     504  SGN504      0.0611
     81 H           8.9773   16.0655  -21.7549 H     504  SGN504      0.0611
     82 H           5.2669   22.4747  -25.0544 H     502  SGN502      0.0650
     83 H           9.4345   21.8523  -19.5781 H     504  SGN504      0.1485
     84 H          14.7220   15.2019  -24.9719 H     535  IDS535      0.2099
     85 H          15.0078   15.1673  -22.6663 H     505  IDS505      0.0622
     86 H           5.4299   19.7724  -22.3408 H     503  IDS503      0.0742
     87 H           2.9919   23.9321  -23.8877 H     502  SGN502      0.0648
     88 H          -2.5029   24.8678  -28.8607 H     501  IDS501      0.2101
     89 H           4.6862   19.9994  -25.0699 H     502  SGN502      0.2100
     90 H          10.6839   23.7307  -17.7608 H     504  SGN504      0.2439
     91 H          12.9719   15.7249  -24.6570 H     505  IDS505      0.2101
     92 H          10.9618   20.4277  -21.4534 H     504  SGN504      0.0638
     93 H          -2.2067   27.6635  -26.4358 H     501  IDS501      0.2126
     94 H          11.7315   17.6991  -20.1205 H     504  SGN504      0.0650
     95 H           0.9550   20.9290  -26.3786 H     502  SGN502      0.1485
     96 H           8.3945   19.5478  -18.8671 H     504  SGN504      0.0927
     97 H          -1.0986   26.5709  -28.0037 H     501  IDS501      0.0671
     98 H           8.4737   23.1525  -18.0353 H     504  SGN504      0.2439
     99 H          16.6185   17.5660  -23.4364 H     505  IDS505      0.0321
    100 H          16.9797   16.2910  -22.2658 H     505  IDS505      0.0321
    101 H          10.6588   12.9840  -18.4746 H     504  SGN504      0.2469
    102 H          -0.1475   24.3025  -22.5587 H     501  IDS501      0.2951
    103 H           9.7898   18.3666  -22.1297 H     504  SGN504      0.0648
    104 H           1.9849   23.0000  -27.3654 H     502  SGN502      0.0927
    105 H           3.8513   20.0895  -28.2033 H     502  SGN502      0.2439
    106 H           6.8529   21.6252  -19.4400 H     503  IDS503      0.0649
    107 H           4.4810   20.8502  -20.8562 H     503  IDS503      0.2100
    108 H           4.9197   25.2077  -23.4527 H     502  SGN502      0.0611
    109 H           4.1894   25.9613  -24.8482 H     502  SGN502      0.0611
    110 H          10.8313   19.5706  -18.5640 H     504  SGN504      0.0554
    111 H          13.8180   17.6986  -23.7717 H     505  IDS505      0.0670
    112 H          12.8084   16.3420  -21.3124 H     505  IDS505      0.0938
    113 H           3.7214   21.3657  -26.7528 H     502  SGN502      0.0554
    114 H          -3.2836   25.7008  -26.9239 H     501  IDS501      0.0936
    115 H           2.1624   21.4628  -28.8674 H     502  SGN502      0.2439
    116 H           1.3195   17.9985  -27.1908 H     502  SGN502      0.2439
    117 H           9.6049   25.7941  -20.9333 H     503  IDS503      0.2469
    118 H           5.7468   17.5194  -22.4207 H     503  IDS503      0.2951
    119 H           6.6495   19.1906  -20.4123 H     503  IDS503      0.0656
    120 H           0.7459   24.8198  -27.8579 H     501  IDS501      0.0648
    121 H           5.5375   23.2190  -20.9830 H     503  IDS503      0.0699
    122 H          17.7479   19.3265  -21.3744 H     505  IDS505      0.2951
    123 H          -0.6583   25.2997  -24.4343 H     501  IDS501      0.0741
    124 H          15.5090   18.8115  -21.9136 H     505  IDS505      0.0715
    125 H           6.3181   27.3481  -24.7375 H     502  SGN502      0.2469
    126 H          12.9745   19.9808  -19.4999 H     504  SGN504      0.2100
    127 H          11.0287   20.4981  -16.6480 H     504  SGN504      0.2439
    128 H           6.6133   23.0612  -23.3665 H     503  IDS503      0.0939
    129 H           0.1420   23.3206  -26.7289 H     501  IDS501      0.0655
    130 H           0.2611   26.6236  -25.6872 H     501  IDS501      0.2100
@<TRIPOS>BOND
     1     1    69    1
     2     1    20    2
     3     1    35    1
     4     2    27    2
     5     3    57    2
     6     4    52    1
     7     4     8    1
     8     4    17    1
     9     5    63    2
    10     6    37    1
    11     6    68    1
    12     7    64    2
    13     8    14    1
    14     8    54    1
    15     9    45    1
    16     9    51    1
    17    10    11    1
    18    11    49    1
    19    11    33    1
    20    12    61    1
    21    12    63    1
    22    12    47    1
    23    13    64    2
    24    14    44    1
    25    14    25    1
    26    15    30    1
    27    16    57    2
    28    18    51    1
    29    19    49    1
    30    21    44    1
    31    21    27    1
    32    22    45    1
    33    22    24    1
    34    22    72    1
    35    23    53    1
    36    24    37    1
    37    24    36    1
    38    25    38    1
    39    26    52    1
    40    26    56    1
    41    27    66    2
    42    27    71    1
    43    28    65    1
    44    28    57    1
    45    29    45    1
    46    29    77    1
    47    29    75    1
    48    30    53    1
    49    30    62    1
    50    31    51    1
    51    32    50    1
    52    32    70    1
    53    33    70    1
    54    34    64    1
    55    36    50    1
    56    37    75    1
    57    38    52    1
    58    38    39    1
    59    39    76    1
    60    40    53    1
    61    40    69    1
    62    41    56    1
    63    42    65    1
    64    42    61    1
    65    42    43    1
    66    46    48    2
    67    47    74    1
    68    48    70    1
    69    48    67    1
    70    49    50    1
    71    51    73    1
    72    54    74    1
    73    55    56    1
    74    56    58    1
    75    57    59    1
    76    60    63    1
    77    61    77    1
    78    62    76    1
    79    62    78    1
    80    64    68    1
    81    65    74    1
    82    69    76    1
    83     4    79    1
    84     6    80    1
    85     6    81    1
    86     8    82    1
    87     9    83    1
    88    10    84    1
    89    11    85    1
    90    12    86    1
    91    14    87    1
    92    15    88    1
    93    17    89    1
    94    18    90    1
    95    19    91    1
    96    22    92    1
    97    23    93    1
    98    24    94    1
    99    26    95    1
   100    29    96    1
   101    30    97    1
   102    31    98    1
   103    33    99    1
   104    33   100    1
   105    34   101    1
   106    35   102    1
   107    37   103    1
   108    38   104    1
   109    41   105    1
   110    42   106    1
   111    43   107    1
   112    44   108    1
   113    44   109    1
   114    45   110    1
   115    49   111    1
   116    50   112    1
   117    52   113    1
   118    53   114    1
   119    55   115    1
   120    58   116    1
   121    59   117    1
   122    60   118    1
   123    61   119    1
   124    62   120    1
   125    65   121    1
   126    67   122    1
   127    69   123    1
   128    70   124    1
   129    71   125    1
   130    72   126    1
   131    73   127    1
   132    74   128    1
   133    76   129    1
   134    78   130    1
