@<TRIPOS>MOLECULE
3DY0_LIGAND_1_uncharged.pdb
 121 125 0 0 0
SMALL
GASTEIGER

@<TRIPOS>ATOM
      1  C6        -1.1700   23.3710  -23.8070 C.2   501  IDS501      0.3367
      2  O5S        5.7910   26.4110  -27.0230 O.2   502  SGN502     -0.3452
      3  O3S        7.2640   25.4190  -22.0380 O.2   503  IDS503     -0.3452
      4  C3         3.3510   21.3800  -24.6580 C.3   502  SGN502      0.1055
      5  O61        8.0310   18.7380  -23.7910 O.2   503  IDS503     -0.2480
      6  C6         9.9810   16.3430  -21.5090 C.3   504  SGN504      0.1035
      7  O6S       10.7220   13.3790  -21.0660 O.2   504  SGN504     -0.3452
      8  C4         4.4120   22.4770  -24.4110 C.3   502  SGN502      0.1176
      9  N         10.2180   21.5020  -19.0270 N.3   504  SGN504     -0.1775
     10  O3        15.4210   15.7540  -24.5880 O.3   535  IDS535     -0.3890
     11  C3        15.0960   16.0610  -23.2480 C.3   505  IDS505      0.0887
     12  C5         6.4900   19.9120  -22.3800 C.3   503  IDS503      0.1863
     13  O5S        8.7230   14.0180  -19.9290 O.2   504  SGN504     -0.3452
     14  C5         3.7400   23.8680  -24.6500 C.3   502  SGN502      0.1158
     15  O2        -1.6310   24.6260  -28.5110 O.3   501  IDS501     -0.3841
     16  O1S        7.3920   25.1390  -19.6700 O.2   503  IDS503     -0.3452
     17  O3         3.9390   20.1080  -24.4610 O.3   502  SGN502     -0.3874
     18  O2S       10.8470   22.9820  -17.1660 O.3   504  SGN504     -0.0534
     19  O2        12.7480   15.9480  -23.7400 O.3   505  IDS505     -0.3842
     20  O61       -1.8230   22.3650  -23.9780 O.2   501  IDS501     -0.2480
     21  O6         5.8630   24.8570  -25.2270 O.3   502  SGN502     -0.2520
     22  C3        11.3470   19.9130  -20.5980 C.3   504  SGN504      0.1055
     23  O1        -2.1540   26.9320  -25.8010 O.3   501  IDS501     -0.3649
     24  C4        11.4810   18.3980  -20.8910 C.3   504  SGN504      0.1176
     25  O5         3.1750   23.9370  -25.9860 O.3   502  SGN502     -0.3413
     26  N          1.8690   20.4820  -26.4500 N.3   502  SGN502     -0.1775
     27  S2         6.7010   25.9020  -26.0360 S.3   502  SGN502     -0.0008
     28  O2         7.6180   23.2290  -21.1040 O.3   503  IDS503     -0.2435
     29  C1         9.0010   19.4940  -19.7470 C.3   504  SGN504      0.1795
     30  C2        -1.2130   25.5990  -27.5710 C.3   501  IDS501      0.1340
     31  O3S        8.5590   22.3770  -17.4590 O.3   504  SGN504     -0.0534
     32  O5        14.5350   17.2790  -20.8990 O.3   505  IDS505     -0.3341
     33  C4        16.2280   16.9430  -22.6590 C.3   505  IDS505      0.0127
     34  O4S       10.7910   13.9090  -18.7350 O.3   504  SGN504     -0.2682
     35  O62       -0.6590   23.5350  -22.7240 O.3   501  IDS501     -0.4788
     36  O1        12.6160   18.3200  -21.7610 O.3   505  IDS505     -0.3402
     37  C5        10.0520   17.8520  -21.2290 C.3   504  SGN504      0.1158
     38  C1         2.2380   22.9060  -26.3300 C.3   502  SGN502      0.1795
     39  O1         1.0540   23.0490  -25.5720 O.3   502  SGN502     -0.3406
     40  O5        -2.2430   24.5940  -25.5960 O.3   501  IDS501     -0.3317
     41  O1S        3.2690   19.3150  -28.1590 O.3   502  SGN502     -0.0534
     42  C3         6.2990   21.3660  -20.3180 C.3   503  IDS503      0.1174
     43  O3         4.9420   21.0790  -20.0340 O.3   503  IDS503     -0.3863
     44  C6         4.6770   25.0800  -24.4870 C.3   502  SGN502      0.1035
     45  C2        10.3940   20.0850  -19.3940 C.3   504  SGN504      0.1081
     46  O62       16.7450   17.4590  -19.3510 O.2   505  IDS505     -0.2481
     47  O5         6.8560   21.0820  -23.1250 O.3   503  IDS503     -0.3314
     48  C6        16.7800   18.0630  -20.4040 C.2   505  IDS505      0.3341
     49  C2        13.7470   16.7950  -23.2030 C.3   505  IDS505      0.1317
     50  C1        13.3760   17.1430  -21.7380 C.3   505  IDS505      0.1888
     51  S1         9.9230   21.9250  -17.4630 S.3   504  SGN504      0.0767
     52  C2         2.8720   21.5040  -26.1170 C.3   502  SGN502      0.1081
     53  C1        -2.3110   25.7130  -26.4780 C.3   501  IDS501      0.1860
     54  O1         4.8070   22.2230  -23.0640 O.3   503  IDS503     -0.3401
     55  O3S        1.5070   20.7480  -28.8470 O.3   502  SGN502     -0.0534
     56  S1         1.9250   19.7420  -27.9120 S.3   502  SGN502      0.0767
     57  S          7.9160   24.7570  -20.9470 S.3   503  IDS503     -0.0004
     58  O2S        0.9970   18.6510  -27.8320 O.3   502  SGN502     -0.0534
     59  O2S        9.3450   24.8640  -21.0240 O.3   503  IDS503     -0.2682
     60  O62        6.5100   17.6020  -22.9580 O.3   503  IDS503     -0.4788
     61  C4         6.9490   20.0870  -20.9140 C.3   503  IDS503      0.1267
     62  C3         0.1840   25.1900  -27.0260 C.3   501  IDS501      0.1149
     63  C6         7.0460   18.6790  -23.0860 C.2   503  IDS503      0.3367
     64  S2        10.1530   14.1460  -19.9960 S.3   504  SGN504     -0.0008
     65  C2         6.3620   22.5980  -21.2650 C.3   503  IDS503      0.1644
     66  O4S        7.8080   25.2010  -26.6110 O.2   502  SGN502     -0.3452
     67  O61       17.6890   18.8430  -20.5740 O.3   505  IDS505     -0.4788
     68  O6        10.4030   15.6460  -20.3550 O.3   504  SGN504     -0.2520
     69  C5        -0.9880   24.4040  -24.9180 C.3   501  IDS501      0.1863
     70  C5        15.7250   17.8530  -21.4900 C.3   505  IDS505      0.1603
     71  O6S        7.1040   26.9060  -25.0950 O.3   502  SGN502     -0.2682
     72  O3        12.6190   20.4430  -20.2750 O.3   504  SGN504     -0.3874
     73  O1S       10.1000   20.7770  -16.6230 O.3   504  SGN504     -0.0534
     74  C1         6.1780   22.2830  -22.7750 C.3   503  IDS503      0.1915
     75  O5         9.1230   18.1260  -20.1450 O.3   504  SGN504     -0.3413
     76  C4         0.1140   24.0610  -25.9570 C.3   501  IDS501      0.1266
     77  O1         8.3640   20.2410  -20.7610 O.3   504  SGN504     -0.3406
     78  O3         0.7980   26.3180  -26.4350 O.3   501  IDS501     -0.3864
     79  H          2.5280   21.4930  -23.9840 H     502  SGN502      0.0638
     80  H         10.6210   16.0990  -22.3310 H     504  SGN504      0.0610
     81  H          8.9770   16.0660  -21.7550 H     504  SGN504      0.0610
     82  H          5.2670   22.4750  -25.0540 H     502  SGN502      0.0650
     83  H          9.4340   21.8520  -19.5780 H     504  SGN504      0.1487
     84  H         14.7220   15.2020  -24.9720 H     535  IDS535      0.2099
     85  H         15.0080   15.1670  -22.6660 H     505  IDS505      0.0622
     86  H          5.4300   19.7720  -22.3410 H     503  IDS503      0.0742
     87  H          2.9920   23.9320  -23.8880 H     502  SGN502      0.0648
     88  H         -2.5030   24.8680  -28.8610 H     501  IDS501      0.2101
     89  H          4.6860   19.9990  -25.0700 H     502  SGN502      0.2100
     90  H         12.9720   15.7250  -24.6570 H     505  IDS505      0.2101
     91  H         10.9620   20.4280  -21.4530 H     504  SGN504      0.0638
     92  H         -2.2070   27.6630  -26.4360 H     501  IDS501      0.2126
     93  H         11.7320   17.6990  -20.1200 H     504  SGN504      0.0650
     94  H          0.9550   20.9290  -26.3790 H     502  SGN502      0.1487
     95  H          8.3950   19.5480  -18.8670 H     504  SGN504      0.0927
     96  H         -1.0990   26.5710  -28.0040 H     501  IDS501      0.0671
     97  H         16.6190   17.5660  -23.4360 H     505  IDS505      0.0321
     98  H         16.9800   16.2910  -22.2660 H     505  IDS505      0.0321
     99  H         -0.1470   24.3020  -22.5590 H     501  IDS501      0.2951
    100  H          9.7900   18.3670  -22.1300 H     504  SGN504      0.0648
    101  H          1.9850   23.0000  -27.3650 H     502  SGN502      0.0927
    102  H          6.8530   21.6250  -19.4400 H     503  IDS503      0.0649
    103  H          4.4810   20.8500  -20.8560 H     503  IDS503      0.2100
    104  H          4.9200   25.2080  -23.4530 H     502  SGN502      0.0610
    105  H          4.1890   25.9610  -24.8480 H     502  SGN502      0.0610
    106  H         10.8310   19.5710  -18.5640 H     504  SGN504      0.0554
    107  H         13.8180   17.6990  -23.7720 H     505  IDS505      0.0670
    108  H         12.8080   16.3420  -21.3120 H     505  IDS505      0.0938
    109  H          3.7210   21.3660  -26.7530 H     502  SGN502      0.0554
    110  H         -3.2840   25.7010  -26.9240 H     501  IDS501      0.0936
    111  H          5.7470   17.5190  -22.4210 H     503  IDS503      0.2951
    112  H          6.6490   19.1910  -20.4120 H     503  IDS503      0.0656
    113  H          0.7460   24.8200  -27.8580 H     501  IDS501      0.0648
    114  H          5.5370   23.2190  -20.9830 H     503  IDS503      0.0698
    115  H         17.7480   19.3260  -21.3740 H     505  IDS505      0.2951
    116  H         -0.6580   25.3000  -24.4340 H     501  IDS501      0.0741
    117  H         15.5090   18.8110  -21.9140 H     505  IDS505      0.0715
    118  H         12.9750   19.9810  -19.5000 H     504  SGN504      0.2100
    119  H          6.6130   23.0610  -23.3660 H     503  IDS503      0.0939
    120  H          0.1420   23.3210  -26.7290 H     501  IDS501      0.0655
    121  H          0.2610   26.6240  -25.6870 H     501  IDS501      0.2100
@<TRIPOS>BOND
     1     1    69    1
     2     1    20    2
     3     1    35    1
     4     2    27    2
     5     3    57    2
     6     4    52    1
     7     4     8    1
     8     4    17    1
     9     4    79    1
    10     5    63    2
    11     6    37    1
    12     6    68    1
    13     6    80    1
    14     6    81    1
    15     7    64    2
    16     8    14    1
    17     8    54    1
    18     8    82    1
    19     9    45    1
    20     9    51    1
    21     9    83    1
    22    10    11    1
    23    10    84    1
    24    11    49    1
    25    11    33    1
    26    11    85    1
    27    12    61    1
    28    12    63    1
    29    12    47    1
    30    12    86    1
    31    13    64    2
    32    14    44    1
    33    14    25    1
    34    14    87    1
    35    15    30    1
    36    15    88    1
    37    16    57    2
    38    17    89    1
    39    18    51    1
    40    19    49    1
    41    19    90    1
    42    21    44    1
    43    21    27    1
    44    22    45    1
    45    22    24    1
    46    22    72    1
    47    22    91    1
    48    23    53    1
    49    23    92    1
    50    24    37    1
    51    24    36    1
    52    24    93    1
    53    25    38    1
    54    26    52    1
    55    26    56    1
    56    26    94    1
    57    27    66    2
    58    27    71    1
    59    28    65    1
    60    28    57    1
    61    29    45    1
    62    29    77    1
    63    29    75    1
    64    29    95    1
    65    30    53    1
    66    30    62    1
    67    30    96    1
    68    31    51    1
    69    32    50    1
    70    32    70    1
    71    33    70    1
    72    33    97    1
    73    33    98    1
    74    34    64    1
    75    35    99    1
    76    36    50    1
    77    37    75    1
    78    37   100    1
    79    38    52    1
    80    38    39    1
    81    38   101    1
    82    39    76    1
    83    40    53    1
    84    40    69    1
    85    41    56    1
    86    42    65    1
    87    42    61    1
    88    42    43    1
    89    42   102    1
    90    43   103    1
    91    44   104    1
    92    44   105    1
    93    45   106    1
    94    46    48    2
    95    47    74    1
    96    48    70    1
    97    48    67    1
    98    49    50    1
    99    49   107    1
   100    50   108    1
   101    51    73    1
   102    52   109    1
   103    53   110    1
   104    54    74    1
   105    55    56    1
   106    56    58    1
   107    57    59    1
   108    60    63    1
   109    60   111    1
   110    61    77    1
   111    61   112    1
   112    62    76    1
   113    62    78    1
   114    62   113    1
   115    64    68    1
   116    65    74    1
   117    65   114    1
   118    67   115    1
   119    69    76    1
   120    69   116    1
   121    70   117    1
   122    72   118    1
   123    74   119    1
   124    76   120    1
   125    78   121    1
