@<TRIPOS>MOLECULE
3EVJ_LIGAND_1_uncharged.pdb
 149 152 0 0 0
SMALL
GASTEIGER

@<TRIPOS>ATOM
      1  S5H       65.7380   -3.4710   19.5480 S.3   863  NTO863     -0.0198
      2  O4C       70.4820    1.4230   14.6200 O.2   863  NTO863     -0.1181
      3  C40       65.8380    2.3020   12.7750 C.3   863  NTO863      0.1267
      4  O4D       70.4360    2.7700   12.5730 O.2   863  NTO863     -0.1181
      5  C31       63.4060    2.0940   10.5540 C.3   863  NTO863      0.1160
      6  O4G       68.1880    0.7760   15.8160 O.3   863  NTO863     -0.3401
      7  C29       59.4820    0.0050    9.6490 C.3   863  NTO863      0.1342
      8  C21       58.0800    2.4370    9.0780 C.3   863  NTO863      0.1863
      9  C12       53.2480    1.3090    6.5580 C.3   863  NTO863      0.1111
     10  O5A       66.6960   -1.6240   16.2100 O.3   863  NTO863     -0.3874
     11  O1C       54.1010    0.4440    4.4560 O.3   863  NTO863     -0.3874
     12  O3M       64.5470    2.9130   12.9330 O.3   863  NTO863     -0.3406
     13  C1E       55.1570   -0.3020    6.4910 C.3   863  NTO863      0.1072
     14  O56       66.9350    4.7670   17.4320 O.2   863  NTO863     -0.1181
     15  C3F       62.8440    4.4170   12.1080 C.3   863  NTO863      0.1104
     16  O24       57.1750    4.0680   10.5660 O.2   863  NTO863     -0.2480
     17  C50       67.7200    0.3740   17.1130 C.3   863  NTO863      0.1176
     18  O5M       69.3410   -1.5730   19.5950 O.3   863  NTO863     -0.3528
     19  O19       50.2580    2.7070   10.7460 O.2   863  NTO863     -0.1181
     20  S55       67.5730    4.3600   18.7260 S.O2  863  NTO863      0.2076
     21  O25       56.1000    3.6990    8.6650 O.3   863  NTO863     -0.4788
     22  O3J       63.1960    7.4820   14.2250 O.3   863  NTO863     -0.2626
     23  O5K       66.0670   -4.6710   20.3850 O.3   863  NTO863     -0.2626
     24  C39       61.8140    3.2870   12.0600 C.3   863  NTO863      0.1398
     25  O3K       63.9550    6.8350   11.9860 O.3   863  NTO863     -0.2626
     26  O1J       57.6070   -2.5400    4.5640 O.3   863  NTO863     -0.2669
     27  O52       68.1720    0.4610   19.4840 O.3   863  NTO863     -0.3414
     28  O18       51.0200    0.3990   11.0450 O.2   863  NTO863     -0.1181
     29  O4A       69.0530    3.3360   14.4510 O.3   863  NTO863     -0.2047
     30  C13       53.6040    1.5950    8.0190 C.3   863  NTO863      0.1155
     31  S3H       63.7780    6.3720   13.4010 S.3   863  NTO863     -0.0198
     32  C5N       69.4750   -2.4900   20.6840 C.3   863  NTO863      0.0395
     33  O14       54.2410    0.4470    8.6020 O.3   863  NTO863     -0.3414
     34  O38       63.5450    2.8420    5.7970 O.2   863  NTO863     -0.1181
     35  C41       65.9000    1.0170   13.5860 C.3   863  NTO863      0.1863
     36  C3L       64.2530    3.8590   11.8930 C.3   863  NTO863      0.1796
     37  C2C       60.1180    1.3940    9.7390 C.3   863  NTO863      0.1890
     38  C26       58.3680    0.0020    8.6000 C.3   863  NTO863      0.1149
     39  O5I       64.6410   -3.8180   18.5860 O.3   863  NTO863     -0.2626
     40  C30       61.9580    2.5200   10.7420 C.3   863  NTO863      0.1202
     41  O10       52.7040    2.4980    5.9790 O.3   863  NTO863     -0.3865
     42  O47       67.5580    3.8760   12.1460 O.3   863  NTO863     -0.3863
     43  O1A       51.8910    2.1750   12.4890 O.3   863  NTO863     -0.2311
     44  C15       52.2970    1.8560    8.7760 C.3   863  NTO863      0.1076
     45  S3B       59.8920    3.5880   13.4180 S.O2  863  NTO863      0.2079
     46  N5G       67.0600   -3.0050   18.7120 N.3   863  NTO863     -0.1845
     47  O1L       56.3590    1.2220    7.9080 O.3   863  NTO863     -0.3406
     48  N3G       62.7710    5.0920   13.4110 N.3   863  NTO863     -0.1844
     49  O54       67.7090    2.9360   18.7400 O.3   863  NTO863     -0.2131
     50  O36       61.8460    1.2400    6.5150 O.2   863  NTO863     -0.1181
     51  O37       64.2180    0.6320    6.6130 O.3   863  NTO863     -0.2311
     52  C33       63.5590    1.3820    9.2070 C.3   863  NTO863      0.1076
     53  C20       57.3600    1.1020    8.9300 C.3   863  NTO863      0.1266
     54  O45       63.5520    0.6940   13.8610 O.2   863  NTO863     -0.2480
     55  O34       63.3020    2.2630    8.1110 O.3   863  NTO863     -0.2131
     56  O3E       59.7270    2.1090   13.6060 O.3   863  NTO863     -0.2311
     57  O4E       71.4070    3.6900   14.6280 O.3   863  NTO863     -0.2311
     58  O3I       65.1040    5.9700   13.9750 O.3   863  NTO863     -0.2626
     59  O5J       65.2750   -2.3630   20.4470 O.3   863  NTO863     -0.2626
     60  O22       59.1170    2.3670   10.0750 O.3   863  NTO863     -0.3315
     61  O3D       58.5460    4.2480   13.4560 O.2   863  NTO863     -0.1181
     62  O3C       60.7420    4.1310   14.5280 O.2   863  NTO863     -0.1181
     63  N1F       56.4110   -0.6550    5.8110 N.3   863  NTO863     -0.1891
     64  S4B       70.3280    2.8100   14.0690 S.O2  863  NTO863      0.2080
     65  O3A       60.5020    3.8510   12.1500 O.3   863  NTO863     -0.2080
     66  O42       66.0330    1.3320   14.9810 O.3   863  NTO863     -0.3314
     67  S1G       56.2950   -2.1540    5.1790 S.3   863  NTO863     -0.0230
     68  S35       63.2310    1.7500    6.7750 S.O2  863  NTO863      0.2076
     69  O2A       60.4810   -0.9540    9.3000 O.3   863  NTO863     -0.3841
     70  C53       68.8690    2.3180   18.1800 C.3   863  NTO863      0.1076
     71  O58       66.7140    4.8030   19.8730 O.3   863  NTO863     -0.2311
     72  C5L       68.0460   -0.9590   19.6580 C.3   863  NTO863      0.1785
     73  O44       64.6630   -0.8160   12.6910 O.3   863  NTO863     -0.4788
     74  O16       52.5000    2.0590   10.1770 O.3   863  NTO863     -0.2131
     75  O57       68.9260    4.9970   18.8500 O.2   863  NTO863     -0.1181
     76  C46       66.9340    3.2490   13.2690 C.3   863  NTO863      0.1176
     77  C4F       67.3510    1.8170   15.2870 C.3   863  NTO863      0.1916
     78  O2D       61.1310    1.3460   10.7540 O.3   863  NTO863     -0.3401
     79  C5F       67.1210   -1.5410   18.5880 C.3   863  NTO863      0.1078
     80  S17       51.4290    1.8410   11.1030 S.O2  863  NTO863      0.2076
     81  O27       57.7150   -1.2710    8.6300 O.3   863  NTO863     -0.3864
     82  C51       68.7030    0.7990   18.1930 C.3   863  NTO863      0.1159
     83  C23       57.0460    3.4800    9.4610 C.2   863  NTO863      0.3367
     84  C1K       55.4650    0.0990    7.9340 C.3   863  NTO863      0.1795
     85  C43       64.6040    0.2350   13.3630 C.2   863  NTO863      0.3367
     86  C59       67.6180   -1.1510   17.1940 C.3   863  NTO863      0.1055
     87  C1B       54.4820    0.8650    5.7680 C.3   863  NTO863      0.1051
     88  C49       67.9880    2.4660   14.0550 C.3   863  NTO863      0.1684
     89  O1I       55.9510   -3.1420    6.2540 O.3   863  NTO863     -0.2669
     90  O32       64.2990    3.2180   10.6080 O.3   863  NTO863     -0.3413
     91  H         65.9900    2.0880   11.7380 H     863  NTO863      0.0656
     92  H         63.6620    1.4300   11.3530 H     863  NTO863      0.0648
     93  H         55.4460   -1.5140    3.4380 H     863  NTO863      0.0000
     94  H         59.0600   -0.2500   10.5990 H     863  NTO863      0.0671
     95  H         58.5530    2.6960    8.1540 H     863  NTO863      0.0742
     96  H         52.5310    0.5160    6.5210 H     863  NTO863      0.0646
     97  H         67.0110   -1.3770   15.3260 H     863  NTO863      0.2100
     98  H         53.6720    1.1800    3.9920 H     863  NTO863      0.2100
     99  H         54.4980   -1.1450    6.4820 H     863  NTO863      0.0554
    100  H         62.6290    5.1180   11.3290 H     863  NTO863      0.0555
    101  H         66.7660    0.8350   17.2610 H     863  NTO863      0.0650
    102  H         56.0520    3.2320    7.8540 H     863  NTO863      0.2951
    103  H         63.7990    8.2420   14.2160 H     863  NTO863      0.2439
    104  H         65.2790   -4.9450   20.8800 H     863  NTO863      0.2439
    105  H         61.9730    2.6140   12.8760 H     863  NTO863      0.0666
    106  H         64.5540    7.5980   11.9680 H     863  NTO863      0.2439
    107  H         57.8370   -1.9050    3.8670 H     863  NTO863      0.2432
    108  H         54.2650    2.4350    8.0750 H     863  NTO863      0.0648
    109  H         70.4390   -2.9530   20.6440 H     863  NTO863      0.0525
    110  H         68.7160   -3.2410   20.6130 H     863  NTO863      0.0525
    111  H         69.3700   -1.9630   21.6090 H     863  NTO863      0.0525
    112  H         66.7410    0.4320   13.2770 H     863  NTO863      0.0742
    113  H         64.9790    4.6450   11.9250 H     863  NTO863      0.0927
    114  H         60.5500    1.6740    8.8010 H     863  NTO863      0.0938
    115  H         58.7770    0.1790    7.6270 H     863  NTO863      0.0648
    116  H         63.8540   -4.0960   19.0800 H     863  NTO863      0.2439
    117  H         61.6550    3.1610    9.9410 H     863  NTO863      0.0651
    118  H         53.3640    3.2080    6.0190 H     863  NTO863      0.2100
    119  H         66.8940    4.3740   11.6440 H     863  NTO863      0.2100
    120  H         51.1660    2.0270   13.1160 H     863  NTO863      0.2469
    121  H         51.6510    1.0140    8.6430 H     863  NTO863      0.0611
    122  H         51.8680    2.7520    8.3790 H     863  NTO863      0.0611
    123  H         67.0260   -3.4170   17.7790 H     863  NTO863      0.1485
    124  H         63.0490    4.4440   14.1480 H     863  NTO863      0.1485
    125  H         64.1690    0.2860    5.7080 H     863  NTO863      0.2469
    126  H         62.8680    0.5660    9.1650 H     863  NTO863      0.0611
    127  H         64.5680    1.0340    9.1260 H     863  NTO863      0.0611
    128  H         56.8790    0.8370    9.8480 H     863  NTO863      0.0655
    129  H         60.5970    1.6810   13.5820 H     863  NTO863      0.2469
    130  H         72.2750    3.3390   14.3730 H     863  NTO863      0.2469
    131  H         65.7040    6.7320   13.9690 H     863  NTO863      0.2439
    132  H         64.4900   -2.6520   20.9380 H     863  NTO863      0.2439
    133  H         57.1790   -0.6290    6.4820 H     863  NTO863      0.1479
    134  H         60.8640   -0.7230    8.4390 H     863  NTO863      0.2101
    135  H         69.7290    2.5860   18.7580 H     863  NTO863      0.0611
    136  H         68.9950    2.6510   17.1710 H     863  NTO863      0.0611
    137  H         65.8380    4.3940   19.7980 H     863  NTO863      0.2469
    138  H         67.6180   -1.1590   20.6180 H     863  NTO863      0.0927
    139  H         65.4840   -1.1060   12.3450 H     863  NTO863      0.2951
    140  H         66.4960    3.9890   13.9050 H     863  NTO863      0.0649
    141  H         67.2550    2.5640   16.0470 H     863  NTO863      0.0939
    142  H         66.1380   -1.1420   18.7290 H     863  NTO863      0.0554
    143  H         57.3470   -1.4250    9.5140 H     863  NTO863      0.2100
    144  H         69.6350    0.3070   18.0080 H     863  NTO863      0.0648
    145  H         55.9220   -0.7110    8.4620 H     863  NTO863      0.0927
    146  H         68.5780   -1.5870   17.0140 H     863  NTO863      0.0638
    147  H         55.1600    1.6890    5.6920 H     863  NTO863      0.0638
    148  H         68.3870    1.6970   13.4270 H     863  NTO863      0.0699
    149  H         55.8840   -4.0290    5.8680 H     863  NTO863      0.2432
@<TRIPOS>BOND
     1     1    39    1
     2     1    59    1
     3     1    23    1
     4     1    46    1
     5     2    64    2
     6     3    12    1
     7     3    35    1
     8     3    76    1
     9     3    91    1
    10     4    64    2
    11     5    40    1
    12     5    90    1
    13     5    52    1
    14     5    92    1
    15     6    77    1
    16     6    17    1
    17     7    38    1
    18     7    69    1
    19     7    37    1
    20     7    94    1
    21     8    53    1
    22     8    60    1
    23     8    83    1
    24     8    95    1
    25     9    41    1
    26     9    30    1
    27     9    87    1
    28     9    96    1
    29    10    86    1
    30    10    97    1
    31    11    87    1
    32    11    98    1
    33    12    36    1
    34    13    87    1
    35    13    84    1
    36    13    63    1
    37    13    99    1
    38    14    20    2
    39    15    24    1
    40    15    36    1
    41    15    48    1
    42    15   100    1
    43    16    83    2
    44    17    82    1
    45    17    86    1
    46    17   101    1
    47    18    72    1
    48    18    32    1
    49    19    80    2
    50    20    49    1
    51    20    75    2
    52    20    71    1
    53    21    83    1
    54    21   102    1
    55    22    31    1
    56    22   103    1
    57    23   104    1
    58    24    40    1
    59    24    65    1
    60    24   105    1
    61    25    31    1
    62    25   106    1
    63    26    67    1
    64    26   107    1
    65    27    82    1
    66    27    72    1
    67    28    80    2
    68    29    88    1
    69    29    64    1
    70    30    33    1
    71    30    44    1
    72    30   108    1
    73    31    58    1
    74    31    48    1
    75    32   109    1
    76    32   110    1
    77    32   111    1
    78    33    84    1
    79    34    68    2
    80    35    66    1
    81    35    85    1
    82    35   112    1
    83    36    90    1
    84    36   113    1
    85    37    60    1
    86    37    78    1
    87    37   114    1
    88    38    53    1
    89    38    81    1
    90    38   115    1
    91    39   116    1
    92    40    78    1
    93    40   117    1
    94    41   118    1
    95    42    76    1
    96    42   119    1
    97    43    80    1
    98    43   120    1
    99    44    74    1
   100    44   121    1
   101    44   122    1
   102    45    65    1
   103    45    62    2
   104    45    61    2
   105    45    56    1
   106    46    79    1
   107    46   123    1
   108    47    84    1
   109    47    53    1
   110    48   124    1
   111    49    70    1
   112    50    68    2
   113    51    68    1
   114    51   125    1
   115    52    55    1
   116    52   126    1
   117    52   127    1
   118    53   128    1
   119    54    85    2
   120    55    68    1
   121    56   129    1
   122    57    64    1
   123    57   130    1
   124    58   131    1
   125    59   132    1
   126    63    67    1
   127    63   133    1
   128    66    77    1
   129    69   134    1
   130    70    82    1
   131    70   135    1
   132    70   136    1
   133    71   137    1
   134    72    79    1
   135    72   138    1
   136    73    85    1
   137    73   139    1
   138    74    80    1
   139    76    88    1
   140    76   140    1
   141    77    88    1
   142    77   141    1
   143    79    86    1
   144    79   142    1
   145    81   143    1
   146    82   144    1
   147    84   145    1
   148    86   146    1
   149    87   147    1
   150    88   148    1
   151    89   149    1
   152    67    89    1
