@<TRIPOS>MOLECULE
3EVJ_LIGAND_2.pdb
 150 154 0 0 0
SMALL
GASTEIGER

@<TRIPOS>ATOM
      1  C21      -10.6710   18.1330  -20.6100 C.3   869  NTO869      0.1863
      2  O10       -4.7000   18.0220  -20.4800 O.3   869  NTO869     -0.3865
      3  O3A      -14.4210   16.6990  -22.3900 O.3   869  NTO869     -0.2080
      4  O3I      -19.4160   17.2820  -24.4540 O.3   869  NTO869     -0.2626
      5  C39      -15.4900   17.4350  -21.7840 C.3   869  NTO869      0.1398
      6  O4E      -24.8290   19.9420  -21.7410 O.2   869  NTO869     -0.1181
      7  C29      -12.3250   18.2320  -18.2850 C.3   869  NTO869      0.1342
      8  C43      -18.3310   17.2700  -18.6120 C.2   869  NTO869      0.3367
      9  O42      -20.3710   16.6470  -19.7590 O.3   869  NTO869     -0.3314
     10  O1L       -8.6820   18.1270  -19.2770 O.3   869  NTO869     -0.3406
     11  C5F      -23.0560   13.9950  -16.9560 C.3   869  NTO869      0.1078
     12  S17       -6.0170   12.9180  -19.6610 S.O2  869  NTO869      0.2076
     13  C49      -21.6340   18.5190  -20.7170 C.3   869  NTO869      0.1684
     14  O1A       -6.9710   12.0130  -20.3790 O.3   869  NTO869     -0.2311
     15  C23       -9.8460   17.4290  -21.6770 C.2   869  NTO869      0.3367
     16  O36      -12.4500   22.0580  -19.5820 O.2   869  NTO869     -0.1181
     17  O57      -24.3650   14.4140  -23.5440 O.2   869  NTO869     -0.1181
     18  O5I      -20.9080   12.8280  -14.8070 O.3   869  NTO869     -0.2626
     19  C3L      -17.4870   18.8370  -22.1560 C.3   869  NTO869      0.1796
     20  N1F       -7.8760   20.0840  -17.4710 N.3   869  NTO869     -0.1845
     21  C41      -19.5830   17.7670  -19.3180 C.3   869  NTO869      0.1863
     22  O25       -8.7930   17.9880  -22.0640 O.3   869  NTO869     -0.4788
     23  C26      -10.8400   18.5910  -18.2000 C.3   869  NTO869      0.1149
     24  C4F      -21.6490   17.0540  -20.2710 C.3   869  NTO869      0.1916
     25  C1B       -6.1300   19.1240  -18.8890 C.3   869  NTO869      0.1051
     26  O1C       -5.1690   20.1220  -18.5370 O.3   869  NTO869     -0.3874
     27  O5M      -25.5020   14.0540  -16.8930 O.3   869  NTO869     -0.3528
     28  C5N      -26.5930   13.1290  -16.9390 C.3   869  NTO869      0.0395
     29  O2D      -14.2130   17.9930  -19.7680 O.3   869  NTO869     -0.3401
     30  C59      -22.8070   15.4360  -17.4040 C.3   869  NTO869      0.1055
     31  O56      -21.9290   14.5610  -23.3820 O.2   869  NTO869     -0.1181
     32  C1K       -8.0210   17.7340  -18.0660 C.3   869  NTO869      0.1795
     33  C5L      -24.3670   13.4660  -17.5410 C.3   869  NTO869      0.1785
     34  C33      -15.4550   20.5930  -19.5880 C.3   869  NTO869      0.1076
     35  S35      -13.8580   22.4840  -19.8710 S.O2  869  NTO869      0.2076
     36  O5A      -21.5050   15.8520  -16.9800 O.3   869  NTO869     -0.3874
     37  O14       -7.2490   16.5430  -18.2850 O.3   869  NTO869     -0.3414
     38  S3B      -14.5810   15.2930  -22.1730 S.O2  869  NTO869      0.2079
     39  N5G      -23.1060   13.9290  -15.4880 N.3   869  NTO869     -0.1845
     40  C3F      -16.3870   18.0460  -22.8620 C.3   869  NTO869      0.1104
     41  O1I       -7.2130   20.1200  -15.0060 O.3   869  NTO869     -0.2626
     42  O44      -18.2200   17.4850  -17.3770 O.2   869  NTO869     -0.2480
     43  C51      -24.2120   14.9800  -19.3930 C.3   869  NTO869      0.1159
     44  S5H      -22.3760   12.5670  -14.9650 S.3   869  NTO869     -0.0198
     45  O22      -12.0560   17.7480  -20.6700 O.3   869  NTO869     -0.3315
     46  O24      -10.2500   16.3200  -22.1010 O.2   869  NTO869     -0.2480
     47  O5J      -22.5840   11.4610  -15.9560 O.3   869  NTO869     -0.2626
     48  O18       -5.9020   12.4830  -18.2310 O.2   869  NTO869     -0.1181
     49  C15       -5.6280   15.3720  -19.6060 C.3   869  NTO869      0.1076
     50  O1J       -8.0020   22.1940  -16.0450 O.3   869  NTO869     -0.2626
     51  C53      -24.2450   14.9860  -20.9230 C.3   869  NTO869      0.1076
     52  C40      -19.1540   18.6110  -20.5100 C.3   869  NTO869      0.1267
     53  O3D      -13.4450   14.5580  -22.8200 O.2   869  NTO869     -0.1181
     54  O34      -14.5980   21.3840  -20.4170 O.3   869  NTO869     -0.2131
     55  C20      -10.0760   17.7900  -19.2530 C.3   869  NTO869      0.1266
     56  N3G      -16.9880   16.9930  -23.7010 N.3   869  NTO869     -0.1844
     57  C13       -6.4070   16.6800  -19.4410 C.3   869  NTO869      0.1155
     58  C31      -16.0560   19.4160  -20.3620 C.3   869  NTO869      0.1160
     59  O16       -6.5180   14.2590  -19.7110 O.3   869  NTO869     -0.2131
     60  C12       -5.4080   17.8240  -19.2540 C.3   869  NTO869      0.1111
     61  O47      -20.3460   20.1910  -21.8920 O.3   869  NTO869     -0.3863
     62  S1G       -7.2030   20.9430  -16.2610 S.3   869  NTO869     -0.0198
     63  O3K      -17.8200   19.0740  -24.9610 O.3   869  NTO869     -0.2626
     64  O3M      -18.1240   17.9350  -21.2410 O.3   869  NTO869     -0.3406
     65  O4A      -22.7560   18.7850  -21.5620 O.3   869  NTO869     -0.2047
     66  O2A      -13.0610   19.0430  -17.3680 O.3   869  NTO869     -0.3841
     67  S55      -23.1500   13.8670  -22.8560 S.O2  869  NTO869      0.2076
     68  C30      -14.9250   18.5420  -20.8880 C.3   869  NTO869      0.1202
     69  O52      -24.4080   13.6210  -18.9690 O.3   869  NTO869     -0.3414
     70  O4C      -23.6480   19.8360  -19.6030 O.2   869  NTO869     -0.1181
     71  O38      -13.8400   23.6060  -20.8650 O.3   869  NTO869     -0.2311
     72  O3E      -14.5950   14.9970  -20.7020 O.3   869  NTO869     -0.2311
     73  O3C      -15.8710   14.8290  -22.7810 O.2   869  NTO869     -0.1181
     74  C50      -22.8640   15.5110  -18.9290 C.3   869  NTO869      0.1176
     75  O54      -23.2680   14.0840  -21.4450 O.3   869  NTO869     -0.2131
     76  O4G      -22.7020   16.8850  -19.3110 O.3   869  NTO869     -0.3401
     77  O3J      -17.6910   16.9590  -26.1640 O.3   869  NTO869     -0.2626
     78  O5K      -22.9610   12.1530  -13.6470 O.3   869  NTO869     -0.2626
     79  O32      -16.8800   19.9160  -21.4270 O.3   869  NTO869     -0.3413
     80  O45      -17.4660   16.6770  -19.2960 O.3   869  NTO869     -0.4788
     81  O4D      -22.7290   21.1770  -21.4410 O.3   869  NTO869     -0.2311
     82  C2C      -12.8530   18.4540  -19.7050 C.3   869  NTO869      0.1890
     83  C46      -20.3320   18.8280  -21.4570 C.3   869  NTO869      0.1176
     84  S3H      -17.9980   17.5900  -24.8380 S.3   869  NTO869     -0.0198
     85  O27      -10.3530   18.2690  -16.8940 O.3   869  NTO869     -0.3864
     86  C1E       -7.0720   18.8790  -17.7100 C.3   869  NTO869      0.1078
     87  O58      -23.0440   12.3950  -23.1170 O.3   869  NTO869     -0.2311
     88  O37      -14.5080   22.9420  -18.5990 O.2   869  NTO869     -0.1181
     89  O19       -4.6700   12.8590  -20.3180 O.2   869  NTO869     -0.1181
     90  S4B      -23.4790   19.9260  -21.0910 S.O2  869  NTO869      0.2080
     91  O1H       -5.7910   21.2930  -16.6250 O.3   869  NTO869     -0.2626
     92 H         -10.6388   19.1897  -20.7750 H     869  NTO869      0.0742
     93 H          -4.0633   18.7459  -20.3724 H     869  NTO869      0.2100
     94 H         -19.6147   17.6899  -23.5967 H     869  NTO869      0.2439
     95 H         -16.0722   16.7654  -21.1861 H     869  NTO869      0.0666
     96 H         -12.4454   17.1988  -18.0343 H     869  NTO869      0.0671
     97 H         -22.2519   13.3859  -17.3129 H     869  NTO869      0.0554
     98 H         -21.6967   19.1461  -19.8523 H     869  NTO869      0.0699
     99 H          -7.8404   12.0544  -19.9508 H     869  NTO869      0.2469
    100 H         -20.5334   13.0953  -15.6609 H     869  NTO869      0.2439
    101 H         -18.1958   19.2387  -22.8496 H     869  NTO869      0.0927
    102 H          -8.8253   19.8154  -17.2121 H     869  NTO869      0.1485
    103 H         -20.1778   18.3549  -18.6506 H     869  NTO869      0.0742
    104 H          -8.5453   18.8185  -21.7077 H     869  NTO869      0.2951
    105 H         -10.7018   19.6369  -18.3787 H     869  NTO869      0.0648
    106 H         -21.8390   16.4189  -21.1109 H     869  NTO869      0.0939
    107 H          -6.6997   19.4599  -19.7301 H     869  NTO869      0.0638
    108 H          -4.6520   19.8183  -17.7745 H     869  NTO869      0.2100
    109 H         -27.4460   13.5593  -16.4572 H     869  NTO869      0.0525
    110 H         -26.3166   12.2262  -16.4355 H     869  NTO869      0.0525
    111 H         -26.8321   12.9099  -17.9587 H     869  NTO869      0.0525
    112 H         -23.5539   16.0700  -16.9737 H     869  NTO869      0.0638
    113 H          -8.7301   17.5373  -17.2893 H     869  NTO869      0.0927
    114 H         -24.4113   12.4146  -17.3472 H     869  NTO869      0.0927
    115 H         -14.8878   20.2136  -18.7638 H     869  NTO869      0.0611
    116 H         -16.2566   21.2136  -19.2457 H     869  NTO869      0.0611
    117 H         -20.8356   15.2717  -17.3750 H     869  NTO869      0.2100
    118 H         -24.0793   13.9290  -15.1829 H     869  NTO869      0.1485
    119 H         -15.8094   18.6819  -23.4999 H     869  NTO869      0.0555
    120 H          -8.1277   19.8956  -14.7738 H     869  NTO869      0.2439
    121 H         -24.9755   15.6015  -18.9739 H     869  NTO869      0.0648
    122 H         -22.2088   11.7194  -16.8124 H     869  NTO869      0.2439
    123 H          -4.9921   15.2333  -18.7567 H     869  NTO869      0.0611
    124 H          -5.0465   15.4308  -20.5023 H     869  NTO869      0.0611
    125 H          -8.9133   21.9591  -15.8101 H     869  NTO869      0.2439
    126 H         -24.0370   15.9743  -21.2764 H     869  NTO869      0.0611
    127 H         -25.2150   14.6752  -21.2508 H     869  NTO869      0.0611
    128 H         -18.7988   19.5504  -20.1409 H     869  NTO869      0.0656
    129 H         -10.1612   16.7490  -19.0207 H     869  NTO869      0.0655
    130 H         -17.5127   16.3573  -23.1002 H     869  NTO869      0.1485
    131 H          -7.0100   16.8916  -20.2992 H     869  NTO869      0.0648
    132 H         -16.6730   18.8195  -19.7230 H     869  NTO869      0.0648
    133 H          -4.7359   17.5677  -18.4619 H     869  NTO869      0.0646
    134 H         -21.0938   20.3307  -22.4938 H     869  NTO869      0.2100
    135 H         -18.0157   19.4948  -24.1092 H     869  NTO869      0.2439
    136 H         -12.9479   19.9779  -17.6004 H     869  NTO869      0.2101
    137 H         -14.2502   19.1240  -21.4803 H     869  NTO869      0.0651
    138 H         -13.4189   23.3046  -21.6852 H     869  NTO869      0.2469
    139 H         -15.3297   15.4724  -20.2835 H     869  NTO869      0.2469
    140 H         -22.0906   14.9233  -19.3777 H     869  NTO869      0.0650
    141 H         -17.8025   15.9977  -26.0982 H     869  NTO869      0.2439
    142 H         -22.8313   12.8626  -12.9985 H     869  NTO869      0.2439
    143 H         -17.6035   16.5454  -20.2135 H     869  NTO869      0.2951
    144 H         -22.6220   21.2312  -22.4036 H     869  NTO869      0.2469
    145 H         -12.8021   19.4975  -19.9362 H     869  NTO869      0.0938
    146 H         -20.2368   18.1829  -22.3053 H     869  NTO869      0.0649
    147 H         -10.4763   17.3214  -16.7275 H     869  NTO869      0.2100
    148 H          -6.4999   18.6384  -16.8384 H     869  NTO869      0.0554
    149 H         -22.9638   12.2408  -24.0713 H     869  NTO869      0.2469
    150 H          -5.2814   20.4792  -16.7629 H     869  NTO869      0.2439
@<TRIPOS>BOND
     1     1    55    1
     2     1    45    1
     3     1    15    1
     4     2    60    1
     5     3     5    1
     6     3    38    1
     7     4    84    1
     8     5    68    1
     9     5    40    1
    10     6    90    2
    11     7    23    1
    12     7    66    1
    13     7    82    1
    14     8    21    1
    15     8    42    2
    16     8    80    1
    17     9    21    1
    18     9    24    1
    19    10    32    1
    20    10    55    1
    21    11    30    1
    22    11    33    1
    23    11    39    1
    24    12    59    1
    25    12    48    2
    26    12    89    2
    27    12    14    1
    28    13    83    1
    29    13    65    1
    30    13    24    1
    31    15    46    2
    32    15    22    1
    33    16    35    2
    34    17    67    2
    35    18    44    1
    36    19    79    1
    37    19    40    1
    38    19    64    1
    39    20    86    1
    40    20    62    1
    41    21    52    1
    42    23    55    1
    43    23    85    1
    44    24    76    1
    45    25    60    1
    46    25    26    1
    47    25    86    1
    48    27    33    1
    49    27    28    1
    50    29    82    1
    51    29    68    1
    52    30    74    1
    53    30    36    1
    54    31    67    2
    55    32    37    1
    56    32    86    1
    57    33    69    1
    58    34    58    1
    59    34    54    1
    60    35    54    1
    61    35    88    2
    62    35    71    1
    63    37    57    1
    64    38    73    2
    65    38    53    2
    66    38    72    1
    67    39    44    1
    68    40    56    1
    69    41    62    1
    70    43    74    1
    71    43    69    1
    72    43    51    1
    73    44    47    1
    74    44    78    1
    75    45    82    1
    76    49    57    1
    77    49    59    1
    78    50    62    1
    79    51    75    1
    80    52    64    1
    81    52    83    1
    82    56    84    1
    83    57    60    1
    84    58    68    1
    85    58    79    1
    86    61    83    1
    87    62    91    1
    88    63    84    1
    89    65    90    1
    90    67    75    1
    91    67    87    1
    92    70    90    2
    93    74    76    1
    94    77    84    1
    95    81    90    1
    96     1    92    1
    97     2    93    1
    98     4    94    1
    99     5    95    1
   100     7    96    1
   101    11    97    1
   102    13    98    1
   103    14    99    1
   104    18   100    1
   105    19   101    1
   106    20   102    1
   107    21   103    1
   108    22   104    1
   109    23   105    1
   110    24   106    1
   111    25   107    1
   112    26   108    1
   113    28   109    1
   114    28   110    1
   115    28   111    1
   116    30   112    1
   117    32   113    1
   118    33   114    1
   119    34   115    1
   120    34   116    1
   121    36   117    1
   122    39   118    1
   123    40   119    1
   124    41   120    1
   125    43   121    1
   126    47   122    1
   127    49   123    1
   128    49   124    1
   129    50   125    1
   130    51   126    1
   131    51   127    1
   132    52   128    1
   133    55   129    1
   134    56   130    1
   135    57   131    1
   136    58   132    1
   137    60   133    1
   138    61   134    1
   139    63   135    1
   140    66   136    1
   141    68   137    1
   142    71   138    1
   143    72   139    1
   144    74   140    1
   145    77   141    1
   146    78   142    1
   147    80   143    1
   148    81   144    1
   149    82   145    1
   150    83   146    1
   151    85   147    1
   152    86   148    1
   153    87   149    1
   154    91   150    1
