@<TRIPOS>MOLECULE
3EVJ_LIGAND_1.pdb
 150 154 0 0 0
SMALL
GASTEIGER

@<TRIPOS>ATOM
      1  S5H       65.7380   -3.4710   19.5480 S.3   863  NTO863     -0.0198
      2  O4C       70.4820    1.4230   14.6200 O.2   863  NTO863     -0.1181
      3  C40       65.8380    2.3020   12.7750 C.3   863  NTO863      0.1267
      4  O4D       70.4360    2.7700   12.5730 O.2   863  NTO863     -0.1181
      5  C31       63.4060    2.0940   10.5540 C.3   863  NTO863      0.1160
      6  O4G       68.1880    0.7760   15.8160 O.3   863  NTO863     -0.3401
      7  O1H       55.2210   -2.1540    4.1320 O.3   863  NTO863     -0.2626
      8  C29       59.4820    0.0050    9.6490 C.3   863  NTO863      0.1342
      9  C21       58.0800    2.4370    9.0780 C.3   863  NTO863      0.1863
     10  C12       53.2480    1.3090    6.5580 C.3   863  NTO863      0.1111
     11  O5A       66.6960   -1.6240   16.2100 O.3   863  NTO863     -0.3874
     12  O1C       54.1010    0.4440    4.4560 O.3   863  NTO863     -0.3874
     13  O3M       64.5470    2.9130   12.9330 O.3   863  NTO863     -0.3406
     14  C1E       55.1570   -0.3020    6.4910 C.3   863  NTO863      0.1078
     15  O56       66.9350    4.7670   17.4320 O.2   863  NTO863     -0.1181
     16  C3F       62.8440    4.4170   12.1080 C.3   863  NTO863      0.1104
     17  O24       57.1750    4.0680   10.5660 O.2   863  NTO863     -0.2480
     18  C50       67.7200    0.3740   17.1130 C.3   863  NTO863      0.1176
     19  O5M       69.3410   -1.5730   19.5950 O.3   863  NTO863     -0.3528
     20  O19       50.2580    2.7070   10.7460 O.2   863  NTO863     -0.1181
     21  S55       67.5730    4.3600   18.7260 S.O2  863  NTO863      0.2076
     22  O25       56.1000    3.6990    8.6650 O.3   863  NTO863     -0.4788
     23  O3J       63.1960    7.4820   14.2250 O.3   863  NTO863     -0.2626
     24  O5K       66.0670   -4.6710   20.3850 O.3   863  NTO863     -0.2626
     25  C39       61.8140    3.2870   12.0600 C.3   863  NTO863      0.1398
     26  O3K       63.9550    6.8350   11.9860 O.3   863  NTO863     -0.2626
     27  O1J       57.6070   -2.5400    4.5640 O.3   863  NTO863     -0.2626
     28  O52       68.1720    0.4610   19.4840 O.3   863  NTO863     -0.3414
     29  O18       51.0200    0.3990   11.0450 O.2   863  NTO863     -0.1181
     30  O4A       69.0530    3.3360   14.4510 O.3   863  NTO863     -0.2047
     31  C13       53.6040    1.5950    8.0190 C.3   863  NTO863      0.1155
     32  S3H       63.7780    6.3720   13.4010 S.3   863  NTO863     -0.0198
     33  C5N       69.4750   -2.4900   20.6840 C.3   863  NTO863      0.0395
     34  O14       54.2410    0.4470    8.6020 O.3   863  NTO863     -0.3414
     35  O38       63.5450    2.8420    5.7970 O.2   863  NTO863     -0.1181
     36  C41       65.9000    1.0170   13.5860 C.3   863  NTO863      0.1863
     37  C3L       64.2530    3.8590   11.8930 C.3   863  NTO863      0.1796
     38  C2C       60.1180    1.3940    9.7390 C.3   863  NTO863      0.1890
     39  C26       58.3680    0.0020    8.6000 C.3   863  NTO863      0.1149
     40  O5I       64.6410   -3.8180   18.5860 O.3   863  NTO863     -0.2626
     41  C30       61.9580    2.5200   10.7420 C.3   863  NTO863      0.1202
     42  O10       52.7040    2.4980    5.9790 O.3   863  NTO863     -0.3865
     43  O47       67.5580    3.8760   12.1460 O.3   863  NTO863     -0.3863
     44  O1A       51.8910    2.1750   12.4890 O.3   863  NTO863     -0.2311
     45  C15       52.2970    1.8560    8.7760 C.3   863  NTO863      0.1076
     46  S3B       59.8920    3.5880   13.4180 S.O2  863  NTO863      0.2079
     47  N5G       67.0600   -3.0050   18.7120 N.3   863  NTO863     -0.1845
     48  O1L       56.3590    1.2220    7.9080 O.3   863  NTO863     -0.3406
     49  N3G       62.7710    5.0920   13.4110 N.3   863  NTO863     -0.1844
     50  O54       67.7090    2.9360   18.7400 O.3   863  NTO863     -0.2131
     51  O36       61.8460    1.2400    6.5150 O.2   863  NTO863     -0.1181
     52  O37       64.2180    0.6320    6.6130 O.3   863  NTO863     -0.2311
     53  C33       63.5590    1.3820    9.2070 C.3   863  NTO863      0.1076
     54  C20       57.3600    1.1020    8.9300 C.3   863  NTO863      0.1266
     55  O45       63.5520    0.6940   13.8610 O.2   863  NTO863     -0.2480
     56  O34       63.3020    2.2630    8.1110 O.3   863  NTO863     -0.2131
     57  O3E       59.7270    2.1090   13.6060 O.3   863  NTO863     -0.2311
     58  O4E       71.4070    3.6900   14.6280 O.3   863  NTO863     -0.2311
     59  O3I       65.1040    5.9700   13.9750 O.3   863  NTO863     -0.2626
     60  O5J       65.2750   -2.3630   20.4470 O.3   863  NTO863     -0.2626
     61  O22       59.1170    2.3670   10.0750 O.3   863  NTO863     -0.3315
     62  O3D       58.5460    4.2480   13.4560 O.2   863  NTO863     -0.1181
     63  O3C       60.7420    4.1310   14.5280 O.2   863  NTO863     -0.1181
     64  N1F       56.4110   -0.6550    5.8110 N.3   863  NTO863     -0.1845
     65  S4B       70.3280    2.8100   14.0690 S.O2  863  NTO863      0.2080
     66  O3A       60.5020    3.8510   12.1500 O.3   863  NTO863     -0.2080
     67  O42       66.0330    1.3320   14.9810 O.3   863  NTO863     -0.3314
     68  S1G       56.2950   -2.1540    5.1790 S.3   863  NTO863     -0.0198
     69  S35       63.2310    1.7500    6.7750 S.O2  863  NTO863      0.2076
     70  O2A       60.4810   -0.9540    9.3000 O.3   863  NTO863     -0.3841
     71  C53       68.8690    2.3180   18.1800 C.3   863  NTO863      0.1076
     72  O58       66.7140    4.8030   19.8730 O.3   863  NTO863     -0.2311
     73  C5L       68.0460   -0.9590   19.6580 C.3   863  NTO863      0.1785
     74  O44       64.6630   -0.8160   12.6910 O.3   863  NTO863     -0.4788
     75  O16       52.5000    2.0590   10.1770 O.3   863  NTO863     -0.2131
     76  O57       68.9260    4.9970   18.8500 O.2   863  NTO863     -0.1181
     77  C46       66.9340    3.2490   13.2690 C.3   863  NTO863      0.1176
     78  C4F       67.3510    1.8170   15.2870 C.3   863  NTO863      0.1916
     79  O2D       61.1310    1.3460   10.7540 O.3   863  NTO863     -0.3401
     80  C5F       67.1210   -1.5410   18.5880 C.3   863  NTO863      0.1078
     81  S17       51.4290    1.8410   11.1030 S.O2  863  NTO863      0.2076
     82  O27       57.7150   -1.2710    8.6300 O.3   863  NTO863     -0.3864
     83  C51       68.7030    0.7990   18.1930 C.3   863  NTO863      0.1159
     84  C23       57.0460    3.4800    9.4610 C.2   863  NTO863      0.3367
     85  C1K       55.4650    0.0990    7.9340 C.3   863  NTO863      0.1795
     86  C43       64.6040    0.2350   13.3630 C.2   863  NTO863      0.3367
     87  C59       67.6180   -1.1510   17.1940 C.3   863  NTO863      0.1055
     88  C1B       54.4820    0.8650    5.7680 C.3   863  NTO863      0.1051
     89  C49       67.9880    2.4660   14.0550 C.3   863  NTO863      0.1684
     90  O1I       55.9510   -3.1420    6.2540 O.3   863  NTO863     -0.2626
     91  O32       64.2990    3.2180   10.6080 O.3   863  NTO863     -0.3413
     92 H          65.9899    2.0883   11.7376 H     863  NTO863      0.0656
     93 H          63.6622    1.4297   11.3527 H     863  NTO863      0.0648
     94 H          55.4458   -1.5145    3.4382 H     863  NTO863      0.2439
     95 H          59.0600   -0.2503   10.5986 H     863  NTO863      0.0671
     96 H          58.5529    2.6959    8.1538 H     863  NTO863      0.0742
     97 H          52.5310    0.5156    6.5214 H     863  NTO863      0.0646
     98 H          67.0110   -1.3768   15.3265 H     863  NTO863      0.2100
     99 H          53.6721    1.1800    3.9921 H     863  NTO863      0.2100
    100 H          54.4981   -1.1450    6.4820 H     863  NTO863      0.0554
    101 H          62.6288    5.1184   11.3291 H     863  NTO863      0.0555
    102 H          66.7656    0.8347   17.2606 H     863  NTO863      0.0650
    103 H          56.0524    3.2320    7.8541 H     863  NTO863      0.2951
    104 H          63.7990    8.2417   14.2160 H     863  NTO863      0.2439
    105 H          65.2795   -4.9454   20.8804 H     863  NTO863      0.2439
    106 H          61.9733    2.6137   12.8762 H     863  NTO863      0.0666
    107 H          64.5537    7.5980   11.9680 H     863  NTO863      0.2439
    108 H          57.8367   -1.9054    3.8673 H     863  NTO863      0.2439
    109 H          54.2647    2.4347    8.0754 H     863  NTO863      0.0648
    110 H          70.4390   -2.9526   20.6442 H     863  NTO863      0.0525
    111 H          68.7159   -3.2408   20.6135 H     863  NTO863      0.0525
    112 H          69.3703   -1.9628   21.6092 H     863  NTO863      0.0525
    113 H          66.7410    0.4320   13.2770 H     863  NTO863      0.0742
    114 H          64.9787    4.6446   11.9247 H     863  NTO863      0.0927
    115 H          60.5502    1.6740    8.8011 H     863  NTO863      0.0938
    116 H          58.7771    0.1789    7.6272 H     863  NTO863      0.0648
    117 H          63.8536   -4.0955   19.0799 H     863  NTO863      0.2439
    118 H          61.6548    3.1614    9.9411 H     863  NTO863      0.0651
    119 H          53.3637    3.2080    6.0188 H     863  NTO863      0.2100
    120 H          66.8943    4.3741   11.6437 H     863  NTO863      0.2100
    121 H          51.1657    2.0274   13.1160 H     863  NTO863      0.2469
    122 H          51.6505    1.0139    8.6426 H     863  NTO863      0.0611
    123 H          51.8679    2.7522    8.3791 H     863  NTO863      0.0611
    124 H          67.0264   -3.4169   17.7795 H     863  NTO863      0.1485
    125 H          63.0487    4.4439   14.1481 H     863  NTO863      0.1485
    126 H          64.1688    0.2858    5.7082 H     863  NTO863      0.2469
    127 H          62.8679    0.5662    9.1655 H     863  NTO863      0.0611
    128 H          64.5678    1.0345    9.1261 H     863  NTO863      0.0611
    129 H          56.8793    0.8370    9.8485 H     863  NTO863      0.0655
    130 H          60.5971    1.6809   13.5816 H     863  NTO863      0.2469
    131 H          72.2747    3.3394   14.3729 H     863  NTO863      0.2469
    132 H          65.7035    6.7325   13.9689 H     863  NTO863      0.2439
    133 H          64.4898   -2.6517   20.9379 H     863  NTO863      0.2439
    134 H          57.1788   -0.6291    6.4820 H     863  NTO863      0.1485
    135 H          60.8640   -0.7232    8.4392 H     863  NTO863      0.2101
    136 H          69.7286    2.5864   18.7579 H     863  NTO863      0.0611
    137 H          68.9948    2.6512   17.1710 H     863  NTO863      0.0611
    138 H          65.8378    4.3939   19.7976 H     863  NTO863      0.2469
    139 H          67.6178   -1.1591   20.6180 H     863  NTO863      0.0927
    140 H          65.4844   -1.1056   12.3454 H     863  NTO863      0.2951
    141 H          66.4962    3.9894   13.9054 H     863  NTO863      0.0649
    142 H          67.2555    2.5641   16.0470 H     863  NTO863      0.0939
    143 H          66.1381   -1.1423   18.7285 H     863  NTO863      0.0554
    144 H          57.3467   -1.4247    9.5141 H     863  NTO863      0.2100
    145 H          69.6349    0.3068   18.0079 H     863  NTO863      0.0648
    146 H          55.9225   -0.7112    8.4624 H     863  NTO863      0.0927
    147 H          68.5782   -1.5874   17.0140 H     863  NTO863      0.0638
    148 H          55.1601    1.6892    5.6919 H     863  NTO863      0.0638
    149 H          68.3867    1.6966   13.4273 H     863  NTO863      0.0699
    150 H          55.8844   -4.0295    5.8682 H     863  NTO863      0.2439
@<TRIPOS>BOND
     1     1    40    1
     2     1    60    1
     3     1    24    1
     4     1    47    1
     5     2    65    2
     6     3    13    1
     7     3    36    1
     8     3    77    1
     9     4    65    2
    10     5    41    1
    11     5    91    1
    12     5    53    1
    13     6    78    1
    14     6    18    1
    15     7    68    1
    16     8    39    1
    17     8    70    1
    18     8    38    1
    19     9    54    1
    20     9    61    1
    21     9    84    1
    22    10    42    1
    23    10    31    1
    24    10    88    1
    25    11    87    1
    26    12    88    1
    27    13    37    1
    28    14    88    1
    29    14    85    1
    30    14    64    1
    31    15    21    2
    32    16    25    1
    33    16    37    1
    34    16    49    1
    35    17    84    2
    36    18    83    1
    37    18    87    1
    38    19    73    1
    39    19    33    1
    40    20    81    2
    41    21    50    1
    42    21    76    2
    43    21    72    1
    44    22    84    1
    45    23    32    1
    46    25    41    1
    47    25    66    1
    48    26    32    1
    49    27    68    1
    50    28    83    1
    51    28    73    1
    52    29    81    2
    53    30    89    1
    54    30    65    1
    55    31    34    1
    56    31    45    1
    57    32    59    1
    58    32    49    1
    59    34    85    1
    60    35    69    2
    61    36    67    1
    62    36    86    1
    63    37    91    1
    64    38    61    1
    65    38    79    1
    66    39    54    1
    67    39    82    1
    68    41    79    1
    69    43    77    1
    70    44    81    1
    71    45    75    1
    72    46    66    1
    73    46    63    2
    74    46    62    2
    75    46    57    1
    76    47    80    1
    77    48    85    1
    78    48    54    1
    79    50    71    1
    80    51    69    2
    81    52    69    1
    82    53    56    1
    83    55    86    2
    84    56    69    1
    85    58    65    1
    86    64    68    1
    87    67    78    1
    88    68    90    1
    89    71    83    1
    90    73    80    1
    91    74    86    1
    92    75    81    1
    93    77    89    1
    94    78    89    1
    95    80    87    1
    96     3    92    1
    97     5    93    1
    98     7    94    1
    99     8    95    1
   100     9    96    1
   101    10    97    1
   102    11    98    1
   103    12    99    1
   104    14   100    1
   105    16   101    1
   106    18   102    1
   107    22   103    1
   108    23   104    1
   109    24   105    1
   110    25   106    1
   111    26   107    1
   112    27   108    1
   113    31   109    1
   114    33   110    1
   115    33   111    1
   116    33   112    1
   117    36   113    1
   118    37   114    1
   119    38   115    1
   120    39   116    1
   121    40   117    1
   122    41   118    1
   123    42   119    1
   124    43   120    1
   125    44   121    1
   126    45   122    1
   127    45   123    1
   128    47   124    1
   129    49   125    1
   130    52   126    1
   131    53   127    1
   132    53   128    1
   133    54   129    1
   134    57   130    1
   135    58   131    1
   136    59   132    1
   137    60   133    1
   138    64   134    1
   139    70   135    1
   140    71   136    1
   141    71   137    1
   142    72   138    1
   143    73   139    1
   144    74   140    1
   145    77   141    1
   146    78   142    1
   147    80   143    1
   148    82   144    1
   149    83   145    1
   150    85   146    1
   151    87   147    1
   152    88   148    1
   153    89   149    1
   154    90   150    1
