@<TRIPOS>MOLECULE
3EVJ_LIGAND_2_uncharged.pdb
 149 152 0 0 0
SMALL
GASTEIGER

@<TRIPOS>ATOM
      1  C21      -10.6710   18.1330  -20.6100 C.3   869  NTO869      0.1863
      2  O10       -4.7000   18.0220  -20.4800 O.3   869  NTO869     -0.3865
      3  O3A      -14.4210   16.6990  -22.3900 O.3   869  NTO869     -0.2080
      4  O3I      -19.4160   17.2820  -24.4540 O.3   869  NTO869     -0.2626
      5  C39      -15.4900   17.4350  -21.7840 C.3   869  NTO869      0.1398
      6  O4E      -24.8290   19.9420  -21.7410 O.2   869  NTO869     -0.1181
      7  C29      -12.3250   18.2320  -18.2850 C.3   869  NTO869      0.1342
      8  C43      -18.3310   17.2700  -18.6120 C.2   869  NTO869      0.3367
      9  O42      -20.3710   16.6470  -19.7590 O.3   869  NTO869     -0.3314
     10  O1L       -8.6820   18.1270  -19.2770 O.3   869  NTO869     -0.3406
     11  C5F      -23.0560   13.9950  -16.9560 C.3   869  NTO869      0.1078
     12  S17       -6.0170   12.9180  -19.6610 S.O2  869  NTO869      0.2076
     13  C49      -21.6340   18.5190  -20.7170 C.3   869  NTO869      0.1684
     14  O1A       -6.9710   12.0130  -20.3790 O.3   869  NTO869     -0.2311
     15  C23       -9.8460   17.4290  -21.6770 C.2   869  NTO869      0.3367
     16  O36      -12.4500   22.0580  -19.5820 O.2   869  NTO869     -0.1181
     17  O57      -24.3650   14.4140  -23.5440 O.2   869  NTO869     -0.1181
     18  O5I      -20.9080   12.8280  -14.8070 O.3   869  NTO869     -0.2626
     19  C3L      -17.4870   18.8370  -22.1560 C.3   869  NTO869      0.1796
     20  N1F       -7.8760   20.0840  -17.4710 N.3   869  NTO869     -0.1891
     21  C41      -19.5830   17.7670  -19.3180 C.3   869  NTO869      0.1863
     22  O25       -8.7930   17.9880  -22.0640 O.3   869  NTO869     -0.4788
     23  C26      -10.8400   18.5910  -18.2000 C.3   869  NTO869      0.1149
     24  C4F      -21.6490   17.0540  -20.2710 C.3   869  NTO869      0.1916
     25  C1B       -6.1300   19.1240  -18.8890 C.3   869  NTO869      0.1051
     26  O1C       -5.1690   20.1220  -18.5370 O.3   869  NTO869     -0.3874
     27  O5M      -25.5020   14.0540  -16.8930 O.3   869  NTO869     -0.3528
     28  C5N      -26.5930   13.1290  -16.9390 C.3   869  NTO869      0.0395
     29  O2D      -14.2130   17.9930  -19.7680 O.3   869  NTO869     -0.3401
     30  C59      -22.8070   15.4360  -17.4040 C.3   869  NTO869      0.1055
     31  O56      -21.9290   14.5610  -23.3820 O.2   869  NTO869     -0.1181
     32  C1K       -8.0210   17.7340  -18.0660 C.3   869  NTO869      0.1795
     33  C5L      -24.3670   13.4660  -17.5410 C.3   869  NTO869      0.1785
     34  C33      -15.4550   20.5930  -19.5880 C.3   869  NTO869      0.1076
     35  S35      -13.8580   22.4840  -19.8710 S.O2  869  NTO869      0.2076
     36  O5A      -21.5050   15.8520  -16.9800 O.3   869  NTO869     -0.3874
     37  O14       -7.2490   16.5430  -18.2850 O.3   869  NTO869     -0.3414
     38  S3B      -14.5810   15.2930  -22.1730 S.O2  869  NTO869      0.2079
     39  N5G      -23.1060   13.9290  -15.4880 N.3   869  NTO869     -0.1845
     40  C3F      -16.3870   18.0460  -22.8620 C.3   869  NTO869      0.1104
     41  O1I       -7.2130   20.1200  -15.0060 O.3   869  NTO869     -0.2669
     42  O44      -18.2200   17.4850  -17.3770 O.2   869  NTO869     -0.2480
     43  C51      -24.2120   14.9800  -19.3930 C.3   869  NTO869      0.1159
     44  S5H      -22.3760   12.5670  -14.9650 S.3   869  NTO869     -0.0198
     45  O22      -12.0560   17.7480  -20.6700 O.3   869  NTO869     -0.3315
     46  O24      -10.2500   16.3200  -22.1010 O.2   869  NTO869     -0.2480
     47  O5J      -22.5840   11.4610  -15.9560 O.3   869  NTO869     -0.2626
     48  O18       -5.9020   12.4830  -18.2310 O.2   869  NTO869     -0.1181
     49  C15       -5.6280   15.3720  -19.6060 C.3   869  NTO869      0.1076
     50  O1J       -8.0020   22.1940  -16.0450 O.3   869  NTO869     -0.2669
     51  C53      -24.2450   14.9860  -20.9230 C.3   869  NTO869      0.1076
     52  C40      -19.1540   18.6110  -20.5100 C.3   869  NTO869      0.1267
     53  O3D      -13.4450   14.5580  -22.8200 O.2   869  NTO869     -0.1181
     54  O34      -14.5980   21.3840  -20.4170 O.3   869  NTO869     -0.2131
     55  C20      -10.0760   17.7900  -19.2530 C.3   869  NTO869      0.1266
     56  N3G      -16.9880   16.9930  -23.7010 N.3   869  NTO869     -0.1844
     57  C13       -6.4070   16.6800  -19.4410 C.3   869  NTO869      0.1155
     58  C31      -16.0560   19.4160  -20.3620 C.3   869  NTO869      0.1160
     59  O16       -6.5180   14.2590  -19.7110 O.3   869  NTO869     -0.2131
     60  C12       -5.4080   17.8240  -19.2540 C.3   869  NTO869      0.1111
     61  O47      -20.3460   20.1910  -21.8920 O.3   869  NTO869     -0.3863
     62  S1G       -7.2030   20.9430  -16.2610 S.3   869  NTO869     -0.0230
     63  O3K      -17.8200   19.0740  -24.9610 O.3   869  NTO869     -0.2626
     64  O3M      -18.1240   17.9350  -21.2410 O.3   869  NTO869     -0.3406
     65  O4A      -22.7560   18.7850  -21.5620 O.3   869  NTO869     -0.2047
     66  O2A      -13.0610   19.0430  -17.3680 O.3   869  NTO869     -0.3841
     67  S55      -23.1500   13.8670  -22.8560 S.O2  869  NTO869      0.2076
     68  C30      -14.9250   18.5420  -20.8880 C.3   869  NTO869      0.1202
     69  O52      -24.4080   13.6210  -18.9690 O.3   869  NTO869     -0.3414
     70  O4C      -23.6480   19.8360  -19.6030 O.2   869  NTO869     -0.1181
     71  O38      -13.8400   23.6060  -20.8650 O.3   869  NTO869     -0.2311
     72  O3E      -14.5950   14.9970  -20.7020 O.3   869  NTO869     -0.2311
     73  O3C      -15.8710   14.8290  -22.7810 O.2   869  NTO869     -0.1181
     74  C50      -22.8640   15.5110  -18.9290 C.3   869  NTO869      0.1176
     75  O54      -23.2680   14.0840  -21.4450 O.3   869  NTO869     -0.2131
     76  O4G      -22.7020   16.8850  -19.3110 O.3   869  NTO869     -0.3401
     77  O3J      -17.6910   16.9590  -26.1640 O.3   869  NTO869     -0.2626
     78  O5K      -22.9610   12.1530  -13.6470 O.3   869  NTO869     -0.2626
     79  O32      -16.8800   19.9160  -21.4270 O.3   869  NTO869     -0.3413
     80  O45      -17.4660   16.6770  -19.2960 O.3   869  NTO869     -0.4788
     81  O4D      -22.7290   21.1770  -21.4410 O.3   869  NTO869     -0.2311
     82  C2C      -12.8530   18.4540  -19.7050 C.3   869  NTO869      0.1890
     83  C46      -20.3320   18.8280  -21.4570 C.3   869  NTO869      0.1176
     84  S3H      -17.9980   17.5900  -24.8380 S.3   869  NTO869     -0.0198
     85  O27      -10.3530   18.2690  -16.8940 O.3   869  NTO869     -0.3864
     86  C1E       -7.0720   18.8790  -17.7100 C.3   869  NTO869      0.1072
     87  O58      -23.0440   12.3950  -23.1170 O.3   869  NTO869     -0.2311
     88  O37      -14.5080   22.9420  -18.5990 O.2   869  NTO869     -0.1181
     89  O19       -4.6700   12.8590  -20.3180 O.2   869  NTO869     -0.1181
     90  S4B      -23.4790   19.9260  -21.0910 S.O2  869  NTO869      0.2080
     91  H        -10.6390   19.1900  -20.7750 H     869  NTO869      0.0742
     92  H         -4.0630   18.7460  -20.3720 H     869  NTO869      0.2100
     93  H        -19.6150   17.6900  -23.5970 H     869  NTO869      0.2439
     94  H        -16.0720   16.7650  -21.1860 H     869  NTO869      0.0666
     95  H        -12.4450   17.1990  -18.0340 H     869  NTO869      0.0671
     96  H        -22.2520   13.3860  -17.3130 H     869  NTO869      0.0554
     97  H        -21.6970   19.1460  -19.8520 H     869  NTO869      0.0699
     98  H         -7.8400   12.0540  -19.9510 H     869  NTO869      0.2469
     99  H        -20.5330   13.0950  -15.6610 H     869  NTO869      0.2439
    100  H        -18.1960   19.2390  -22.8500 H     869  NTO869      0.0927
    101  H         -8.8250   19.8150  -17.2120 H     869  NTO869      0.1479
    102  H        -20.1780   18.3550  -18.6510 H     869  NTO869      0.0742
    103  H         -8.5450   18.8190  -21.7080 H     869  NTO869      0.2951
    104  H        -10.7020   19.6370  -18.3790 H     869  NTO869      0.0648
    105  H        -21.8390   16.4190  -21.1110 H     869  NTO869      0.0939
    106  H         -6.7000   19.4600  -19.7300 H     869  NTO869      0.0638
    107  H         -4.6520   19.8180  -17.7740 H     869  NTO869      0.2100
    108  H        -27.4460   13.5590  -16.4570 H     869  NTO869      0.0525
    109  H        -26.3170   12.2260  -16.4360 H     869  NTO869      0.0525
    110  H        -26.8320   12.9100  -17.9590 H     869  NTO869      0.0525
    111  H        -23.5540   16.0700  -16.9740 H     869  NTO869      0.0638
    112  H         -8.7300   17.5370  -17.2890 H     869  NTO869      0.0927
    113  H        -24.4110   12.4150  -17.3470 H     869  NTO869      0.0927
    114  H        -14.8880   20.2140  -18.7640 H     869  NTO869      0.0611
    115  H        -16.2570   21.2140  -19.2460 H     869  NTO869      0.0611
    116  H        -20.8360   15.2720  -17.3750 H     869  NTO869      0.2100
    117  H        -24.0790   13.9290  -15.1830 H     869  NTO869      0.1485
    118  H        -15.8090   18.6820  -23.5000 H     869  NTO869      0.0555
    119  H         -8.1280   19.8960  -14.7740 H     869  NTO869      0.2432
    120  H        -24.9760   15.6010  -18.9740 H     869  NTO869      0.0648
    121  H        -22.2090   11.7190  -16.8120 H     869  NTO869      0.2439
    122  H         -4.9920   15.2330  -18.7570 H     869  NTO869      0.0611
    123  H         -5.0460   15.4310  -20.5020 H     869  NTO869      0.0611
    124  H         -8.9130   21.9590  -15.8100 H     869  NTO869      0.2432
    125  H        -24.0370   15.9740  -21.2760 H     869  NTO869      0.0611
    126  H        -25.2150   14.6750  -21.2510 H     869  NTO869      0.0611
    127  H        -18.7990   19.5500  -20.1410 H     869  NTO869      0.0656
    128  H        -10.1610   16.7490  -19.0210 H     869  NTO869      0.0655
    129  H        -17.5130   16.3570  -23.1000 H     869  NTO869      0.1485
    130  H         -7.0100   16.8920  -20.2990 H     869  NTO869      0.0648
    131  H        -16.6730   18.8200  -19.7230 H     869  NTO869      0.0648
    132  H         -4.7360   17.5680  -18.4620 H     869  NTO869      0.0646
    133  H        -21.0940   20.3310  -22.4940 H     869  NTO869      0.2100
    134  H        -18.0160   19.4950  -24.1090 H     869  NTO869      0.2439
    135  H        -12.9480   19.9780  -17.6000 H     869  NTO869      0.2101
    136  H        -14.2500   19.1240  -21.4800 H     869  NTO869      0.0651
    137  H        -13.4190   23.3050  -21.6850 H     869  NTO869      0.2469
    138  H        -15.3300   15.4720  -20.2840 H     869  NTO869      0.2469
    139  H        -22.0910   14.9230  -19.3780 H     869  NTO869      0.0650
    140  H        -17.8020   15.9980  -26.0980 H     869  NTO869      0.2439
    141  H        -22.8310   12.8630  -12.9980 H     869  NTO869      0.2439
    142  H        -17.6040   16.5450  -20.2130 H     869  NTO869      0.2951
    143  H        -22.6220   21.2310  -22.4040 H     869  NTO869      0.2469
    144  H        -12.8020   19.4970  -19.9360 H     869  NTO869      0.0938
    145  H        -20.2370   18.1830  -22.3050 H     869  NTO869      0.0649
    146  H        -10.4760   17.3210  -16.7270 H     869  NTO869      0.2100
    147  H         -6.5000   18.6380  -16.8380 H     869  NTO869      0.0554
    148  H        -22.9640   12.2410  -24.0710 H     869  NTO869      0.2469
    149  H         -5.2810   20.4790  -16.7630 H     869  NTO869      0.0000
@<TRIPOS>BOND
     1     1    55    1
     2     1    45    1
     3     1    15    1
     4     1    91    1
     5     2    60    1
     6     2    92    1
     7     3     5    1
     8     3    38    1
     9     4    84    1
    10     4    93    1
    11     5    68    1
    12     5    40    1
    13     5    94    1
    14     6    90    2
    15     7    23    1
    16     7    66    1
    17     7    82    1
    18     7    95    1
    19     8    21    1
    20     8    42    2
    21     8    80    1
    22     9    21    1
    23     9    24    1
    24    10    32    1
    25    10    55    1
    26    11    30    1
    27    11    33    1
    28    11    39    1
    29    11    96    1
    30    12    59    1
    31    12    48    2
    32    12    89    2
    33    12    14    1
    34    13    83    1
    35    13    65    1
    36    13    24    1
    37    13    97    1
    38    14    98    1
    39    15    46    2
    40    15    22    1
    41    16    35    2
    42    17    67    2
    43    18    44    1
    44    18    99    1
    45    19    79    1
    46    19    40    1
    47    19    64    1
    48    19   100    1
    49    20    86    1
    50    20    62    1
    51    20   101    1
    52    21    52    1
    53    21   102    1
    54    22   103    1
    55    23    55    1
    56    23    85    1
    57    23   104    1
    58    24    76    1
    59    24   105    1
    60    25    60    1
    61    25    26    1
    62    25    86    1
    63    25   106    1
    64    26   107    1
    65    27    33    1
    66    27    28    1
    67    28   108    1
    68    28   109    1
    69    28   110    1
    70    29    82    1
    71    29    68    1
    72    30    74    1
    73    30    36    1
    74    30   111    1
    75    31    67    2
    76    32    37    1
    77    32    86    1
    78    32   112    1
    79    33    69    1
    80    33   113    1
    81    34    58    1
    82    34    54    1
    83    34   114    1
    84    34   115    1
    85    35    54    1
    86    35    88    2
    87    35    71    1
    88    36   116    1
    89    37    57    1
    90    38    73    2
    91    38    53    2
    92    38    72    1
    93    39    44    1
    94    39   117    1
    95    40    56    1
    96    40   118    1
    97    41    62    1
    98    41   119    1
    99    43    74    1
   100    43    69    1
   101    43    51    1
   102    43   120    1
   103    44    47    1
   104    44    78    1
   105    45    82    1
   106    47   121    1
   107    49    57    1
   108    49    59    1
   109    49   122    1
   110    49   123    1
   111    50    62    1
   112    50   124    1
   113    51    75    1
   114    51   125    1
   115    51   126    1
   116    52    64    1
   117    52    83    1
   118    52   127    1
   119    55   128    1
   120    56    84    1
   121    56   129    1
   122    57    60    1
   123    57   130    1
   124    58    68    1
   125    58    79    1
   126    58   131    1
   127    60   132    1
   128    61    83    1
   129    61   133    1
   130    63    84    1
   131    63   134    1
   132    65    90    1
   133    66   135    1
   134    67    75    1
   135    67    87    1
   136    68   136    1
   137    70    90    2
   138    71   137    1
   139    72   138    1
   140    74    76    1
   141    74   139    1
   142    77    84    1
   143    77   140    1
   144    78   141    1
   145    80   142    1
   146    81    90    1
   147    81   143    1
   148    82   144    1
   149    83   145    1
   150    85   146    1
   151    86   147    1
   152    87   148    1
