@<TRIPOS>MOLECULE
3H7D_LIGAND_1_uncharged.pdb
 152 157 0 0 0
SMALL
GASTEIGER

@<TRIPOS>ATOM
      1  C5        27.5480  -17.6820   85.5510 C.3   220  BDP220      0.1863
      2  OSB       20.2830  -16.3660   98.6430 O.2   217  ASG217     -0.3452
      3  O5        28.1430  -18.4680   86.5640 O.3   220  BDP220     -0.3315
      4  C4        23.0440  -14.5890   97.7720 C.3   217  ASG217      0.1419
      5  C6        27.4100  -22.1810   91.3580 C.3   219  ASG219      0.0731
      6  C2        28.4370  -17.8740   90.8100 C.3   219  ASG219      0.1027
      7  C8        29.1130  -13.9640   90.8620 C.3   219  ASG219      0.0122
      8  O6        20.6230  -11.5810   97.4690 O.3   217  ASG217     -0.3924
      9  C7        25.5910  -18.0880   80.5570 C.2   221  ASG221      0.2103
     10  O6B       26.6980  -10.0500   98.3180 O.2   216  BDP216     -0.2480
     11  C2        24.4400   -9.0980  102.2420 C.3   216  BDP216      0.1340
     12  O1        27.8990  -16.1460   83.9120 O.3   221  ASG221     -0.3404
     13  OSA       21.9590  -17.2190   97.1470 O.2   217  ASG217     -0.3452
     14  C3        28.2520  -18.7930   89.6130 C.3   219  ASG219      0.1155
     15  C6        30.8490  -13.9750   80.4410 C.3   221  ASG221      0.0730
     16  C7        29.3060  -15.4810   91.0630 C.2   219  ASG219      0.2104
     17  C6        27.3010  -10.3770   99.3630 C.2   216  BDP216      0.3367
     18  O7        30.2200  -15.8790   91.6940 O.2   219  ASG219     -0.2761
     19  O1        27.6750  -17.5580   93.1860 O.3   219  ASG219     -0.3403
     20  C3        27.2200  -18.0200   95.4610 C.3   218  BDP218      0.1149
     21  N         26.4010  -17.5650   81.6570 N.am  221  ASG221     -0.3078
     22  O6        26.5990  -22.6520   92.4250 O.3   219  ASG219     -0.3924
     23  O1        29.1920  -18.4680   88.6420 O.3   220  BDP220     -0.3407
     24  OSB       26.8100  -11.3270   80.6460 O.2   221  ASG221     -0.3452
     25  C4        28.6350  -16.9480   84.7720 C.3   220  BDP220      0.1266
     26  S         21.6840  -16.7440   98.5030 S.3   217  ASG217     -0.0004
     27  O3        27.5650  -19.3800   95.5570 O.3   218  BDP218     -0.3864
     28  O7        25.2730  -17.3920   79.6550 O.2   221  ASG221     -0.2761
     29  O5        27.6940  -19.8160   92.2540 O.3   219  ASG219     -0.3411
     30  O1        25.9270   -7.2440  102.5970 O.3   216  BDP216     -0.3649
     31  O1        24.7930  -15.9580   97.4210 O.3   218  BDP218     -0.3407
     32  OSC       22.0390  -17.7940   99.4490 O.3   217  ASG217     -0.2682
     33  O2        30.2510  -15.9130   88.0010 O.3   220  BDP220     -0.3841
     34  S         27.9790  -12.2000   80.5790 S.3   221  ASG221     -0.0005
     35  C3        27.7400  -16.1540   80.0970 C.3   221  ASG221      0.0014
     36  C2        25.2300  -14.1520   98.8830 C.3   217  ASG217      0.1027
     37  C4        28.5180  -20.2360   90.0150 C.3   219  ASG219      0.1419
     38  C6        21.0600  -12.8450   97.9490 C.3   217  ASG217      0.0731
     39  O5        23.2070  -12.7090   99.3180 O.3   217  ASG217     -0.3411
     40  OSB       29.9590  -22.9950   89.9230 O.2   219  ASG219     -0.3452
     41  C1        27.5350  -18.3440   92.0100 C.3   219  ASG219      0.1808
     42  C2        29.8010  -16.8140   87.0130 C.3   220  BDP220      0.1342
     43  O5        29.3020  -15.0670   82.2200 O.3   221  ASG221     -0.3413
     44  C6        26.6880  -18.5520   84.6380 C.2   220  BDP220      0.3367
     45  C1        28.3580  -16.1840   82.5640 C.3   221  ASG221      0.1784
     46  O5        25.1810  -16.0790   95.1260 O.3   218  BDP218     -0.3315
     47  O3        30.5640  -15.5510   85.1050 O.3   220  BDP220     -0.3864
     48  C1        25.8850   -8.6180  102.2670 C.3   216  BDP216      0.1860
     49  C3        24.3860  -10.5850  101.8990 C.3   216  BDP216      0.1149
     50  C1        24.7040  -12.7480   99.3250 C.3   217  ASG217      0.1808
     51  O4        22.6220  -15.4330   98.8300 O.3   217  ASG217     -0.2460
     52  O7        26.7070  -15.6170  100.7800 O.2   217  ASG217     -0.2761
     53  C4        25.1950  -10.8830  100.6380 C.3   216  BDP216      0.1266
     54  O1        25.2990  -12.2570  100.5150 O.3   217  ASG217     -0.3403
     55  N         28.3510  -16.4340   90.5030 N.am  219  ASG219     -0.3053
     56  C3        24.5600  -14.5960   97.5890 C.3   217  ASG217      0.1155
     57  C8        24.9570  -19.4830   80.6930 C.3   221  ASG221      0.0122
     58  N         26.6970  -14.2660   98.9280 N.am  217  ASG217     -0.3053
     59  OSA       31.0970  -21.3590   88.5500 O.2   219  ASG219     -0.3452
     60  O2        26.7530  -17.9540   97.8030 O.3   218  BDP218     -0.3841
     61  O6A       25.4800  -18.2380   84.5050 O.2   220  BDP220     -0.2480
     62  C3        29.4020  -16.0500   85.7440 C.3   220  BDP220      0.1149
     63  C4        28.3600  -14.7830   79.9930 C.3   221  ASG221      0.1158
     64  C4        26.6340  -17.7080   94.0880 C.3   218  BDP218      0.1266
     65  O6A       26.0500  -14.9670   92.0880 O.2   218  BDP218     -0.2480
     66  O6        31.9600  -13.9060   81.3230 O.3   221  ASG221     -0.3924
     67  O5        26.4550   -8.8420  100.9950 O.3   216  BDP216     -0.3317
     68  O6B       27.2290  -19.5300   84.0680 O.3   220  BDP220     -0.4788
     69  C6        25.5390  -15.9140   92.7270 C.2   218  BDP218      0.3367
     70  C5        26.5730  -10.2200  100.6950 C.3   216  BDP216      0.1863
     71  O6A       28.4680  -10.8220   99.3810 O.3   216  BDP216     -0.4788
     72  C5        26.1320  -16.2670   94.0900 C.3   218  BDP218      0.1863
     73  C5        29.6780  -14.9640   80.7930 C.3   221  ASG221      0.1130
     74  O4        27.4900  -13.7780   80.4890 O.3   221  ASG221     -0.2486
     75  C2        26.1930  -17.7030   96.5330 C.3   218  BDP218      0.1342
     76  O2        23.8510   -8.8720  103.5020 O.3   216  BDP216     -0.3841
     77  O3        23.0440  -10.9820  101.7080 O.3   216  BDP216     -0.3864
     78  C7        27.3520  -15.0000  100.0060 C.2   217  ASG217      0.2104
     79  O6B       24.5830  -16.6000   92.3020 O.3   218  BDP218     -0.4788
     80  S         30.7150  -21.7440   89.9110 S.3   219  ASG219     -0.0004
     81  C5        27.4400  -20.6440   91.0560 C.3   219  ASG219      0.1155
     82  OSC       28.7790  -11.8600   79.4020 O.3   221  ASG221     -0.2682
     83  C1        25.7420  -16.2500   96.4130 C.3   218  BDP218      0.1890
     84  C2        27.2150  -16.3460   81.5040 C.3   221  ASG221      0.0765
     85  O4        29.8200  -20.4870   90.5170 O.3   219  ASG219     -0.2460
     86  C1        28.6730  -17.6620   87.5940 C.3   220  BDP220      0.1890
     87  OSA       28.7760  -12.0020   81.7880 O.2   221  ASG221     -0.3452
     88  C5        22.6070  -13.1140   98.0280 C.3   217  ASG217      0.1155
     89  OSC       31.8880  -21.9550   90.7570 O.3   219  ASG219     -0.2682
     90  C8        28.8840  -15.1520  100.0030 C.3   217  ASG217      0.0122
     91  H         26.9030  -16.9530   85.9950 H     220  BDP220      0.0742
     92  H         22.5800  -14.9760   96.8880 H     217  ASG217      0.0673
     93  H         28.4150  -22.4800   91.5710 H     219  ASG219      0.0584
     94  H         26.9630  -22.6080   90.4850 H     219  ASG219      0.0584
     95  H         29.4550  -17.9730   91.1240 H     219  ASG219      0.0575
     96  H         28.2390  -13.7910   90.2690 H     219  ASG219      0.0322
     97  H         29.9690  -13.5590   90.3640 H     219  ASG219      0.0322
     98  H         28.9970  -13.4900   91.8140 H     219  ASG219      0.0322
     99  H         19.6540  -11.5510   97.4730 H     217  ASG217      0.2095
    100  H         23.9000   -8.5550  101.4950 H     216  BDP216      0.0671
    101  H         27.2520  -18.6800   89.2500 H     219  ASG219      0.0645
    102  H         30.4280  -12.9930   80.3840 H     221  ASG221      0.0584
    103  H         31.2580  -14.3630   79.5310 H     221  ASG221      0.0584
    104  H         28.0980  -17.4240   95.5970 H     218  BDP218      0.0648
    105  H         26.4020  -18.0390   82.5200 H     221  ASG221      0.1491
    106  H         26.9390  -22.3070   93.2660 H     219  ASG219      0.2095
    107  H         29.3320  -17.5910   84.2770 H     220  BDP220      0.0655
    108  H         26.7710  -19.9240   95.4350 H     218  BDP218      0.2100
    109  H         25.5320   -7.1090  103.4730 H     216  BDP216      0.2126
    110  H         30.5000  -16.4060   88.7980 H     220  BDP220      0.2101
    111  H         26.9340  -16.2380   79.3980 H     221  ASG221      0.0311
    112  H         28.4730  -16.9020   79.8770 H     221  ASG221      0.0311
    113  H         24.9300  -14.8740   99.6140 H     217  ASG217      0.0575
    114  H         28.4600  -20.8300   89.1270 H     219  ASG219      0.0673
    115  H         20.6400  -13.5910   97.3070 H     217  ASG217      0.0584
    116  H         20.7340  -12.8700   98.9680 H     217  ASG217      0.0584
    117  H         26.5210  -18.1750   91.7140 H     219  ASG219      0.0930
    118  H         30.5840  -17.4830   86.7210 H     220  BDP220      0.0671
    119  H         28.9310  -17.0860   82.5090 H     221  ASG221      0.0929
    120  H         30.3100  -15.0680   84.3030 H     220  BDP220      0.2100
    121  H         26.4420   -9.1560  103.0060 H     216  BDP216      0.0936
    122  H         24.8110  -11.1350  102.7120 H     216  BDP216      0.0648
    123  H         25.0300  -12.0450   98.5870 H     217  ASG217      0.0930
    124  H         24.7000  -10.4780   99.7800 H     216  BDP216      0.0655
    125  H         27.6360  -16.1090   89.9090 H     219  ASG219      0.1492
    126  H         24.9170  -13.9640   96.8030 H     217  ASG217      0.0645
    127  H         25.3550  -19.9730   81.5570 H     221  ASG221      0.0322
    128  H         25.1780  -20.0620   79.8210 H     221  ASG221      0.0322
    129  H         23.8960  -19.3840   80.7960 H     221  ASG221      0.0322
    130  H         27.2410  -13.8430   98.2250 H     217  ASG217      0.1492
    131  H         27.0320  -18.8820   97.8560 H     218  BDP218      0.2101
    132  H         28.7630  -15.2410   86.0300 H     220  BDP220      0.0648
    133  H         28.5470  -14.4440   78.9960 H     221  ASG221      0.0647
    134  H         25.9130  -18.4660   93.8640 H     218  BDP218      0.0655
    135  H         31.6700  -13.5600   82.1810 H     221  ASG221      0.2095
    136  H         28.1370  -19.7110   84.2100 H     220  BDP220      0.2951
    137  H         27.1340  -10.7040  101.4670 H     216  BDP216      0.0741
    138  H         28.8700  -11.0510  100.1960 H     216  BDP216      0.2951
    139  H         26.9560  -15.6110   94.2750 H     218  BDP218      0.0742
    140  H         30.1590  -15.8710   80.4900 H     221  ASG221      0.0647
    141  H         25.3340  -18.3280   96.4050 H     218  BDP218      0.0671
    142  H         24.3400   -9.3640  104.1800 H     216  BDP216      0.2101
    143  H         22.6610  -10.4820  100.9700 H     216  BDP216      0.2100
    144  H         24.2390  -17.2990   92.8230 H     218  BDP218      0.2951
    145  H         26.4590  -20.4610   90.6700 H     219  ASG219      0.0648
    146  H         26.5680  -15.5820   96.5400 H     218  BDP218      0.0938
    147  H         26.5210  -15.5560   81.7010 H     221  ASG221      0.0549
    148  H         27.8970  -17.0410   87.9910 H     220  BDP220      0.0938
    149  H         22.9700  -12.5040   97.2270 H     217  ASG217      0.0648
    150  H         29.1880  -15.7140  100.8610 H     217  ASG217      0.0322
    151  H         29.3380  -14.1840  100.0320 H     217  ASG217      0.0322
    152  H         29.1900  -15.6640   99.1140 H     217  ASG217      0.0322
@<TRIPOS>BOND
     1     1    25    1
     2     1    44    1
     3     1     3    1
     4     1    91    1
     5     2    26    2
     6     3    86    1
     7     4    56    1
     8     4    88    1
     9     4    51    1
    10     4    92    1
    11     5    81    1
    12     5    22    1
    13     5    93    1
    14     5    94    1
    15     6    41    1
    16     6    14    1
    17     6    55    1
    18     6    95    1
    19     7    16    1
    20     7    96    1
    21     7    97    1
    22     7    98    1
    23     8    38    1
    24     8    99    1
    25     9    57    1
    26     9    21   am
    27     9    28    2
    28    10    17    2
    29    11    48    1
    30    11    49    1
    31    11    76    1
    32    11   100    1
    33    12    25    1
    34    12    45    1
    35    13    26    2
    36    14    37    1
    37    14    23    1
    38    14   101    1
    39    15    73    1
    40    15    66    1
    41    15   102    1
    42    15   103    1
    43    16    55   am
    44    16    18    2
    45    17    70    1
    46    17    71    1
    47    19    64    1
    48    19    41    1
    49    20    75    1
    50    20    64    1
    51    20    27    1
    52    20   104    1
    53    21    84    1
    54    21   105    1
    55    22   106    1
    56    23    86    1
    57    24    34    2
    58    25    62    1
    59    25   107    1
    60    26    51    1
    61    26    32    1
    62    27   108    1
    63    29    41    1
    64    29    81    1
    65    30    48    1
    66    30   109    1
    67    31    56    1
    68    31    83    1
    69    33    42    1
    70    33   110    1
    71    34    74    1
    72    34    87    2
    73    34    82    1
    74    35    84    1
    75    35    63    1
    76    35   111    1
    77    35   112    1
    78    36    50    1
    79    36    56    1
    80    36    58    1
    81    36   113    1
    82    37    81    1
    83    37    85    1
    84    37   114    1
    85    38    88    1
    86    38   115    1
    87    38   116    1
    88    39    50    1
    89    39    88    1
    90    40    80    2
    91    41   117    1
    92    42    86    1
    93    42    62    1
    94    42   118    1
    95    43    45    1
    96    43    73    1
    97    44    61    2
    98    44    68    1
    99    45    84    1
   100    45   119    1
   101    46    83    1
   102    46    72    1
   103    47    62    1
   104    47   120    1
   105    48    67    1
   106    48   121    1
   107    49    53    1
   108    49    77    1
   109    49   122    1
   110    50    54    1
   111    50   123    1
   112    52    78    2
   113    53    70    1
   114    53    54    1
   115    53   124    1
   116    55   125    1
   117    56   126    1
   118    57   127    1
   119    57   128    1
   120    57   129    1
   121    58    78   am
   122    58   130    1
   123    59    80    2
   124    60    75    1
   125    60   131    1
   126    62   132    1
   127    63    73    1
   128    63    74    1
   129    63   133    1
   130    64    72    1
   131    64   134    1
   132    65    69    2
   133    66   135    1
   134    67    70    1
   135    68   136    1
   136    69    72    1
   137    69    79    1
   138    70   137    1
   139    71   138    1
   140    72   139    1
   141    73   140    1
   142    75    83    1
   143    75   141    1
   144    76   142    1
   145    77   143    1
   146    78    90    1
   147    79   144    1
   148    80    85    1
   149    80    89    1
   150    81   145    1
   151    83   146    1
   152    84   147    1
   153    86   148    1
   154    88   149    1
   155    90   150    1
   156    90   151    1
   157    90   152    1
