@<TRIPOS>MOLECULE
3H7D_LIGAND_1.pdb
 155 160 0 0 0
SMALL
GASTEIGER

@<TRIPOS>ATOM
      1  C5        27.5480  -17.6820   85.5510 C.3   220  BDP220      0.1863
      2  OSB       20.2830  -16.3660   98.6430 O.2   217  ASG217     -0.1181
      3  O5        28.1430  -18.4680   86.5640 O.3   220  BDP220     -0.3315
      4  C4        23.0440  -14.5890   97.7720 C.3   217  ASG217      0.1459
      5  C6        27.4100  -22.1810   91.3580 C.3   219  ASG219      0.0731
      6  C2        28.4370  -17.8740   90.8100 C.3   219  ASG219      0.1027
      7  C8        29.1130  -13.9640   90.8620 C.3   219  ASG219      0.0122
      8  O6        20.6230  -11.5810   97.4690 O.3   217  ASG217     -0.3924
      9  C7        25.5910  -18.0880   80.5570 C.2   221  ASG221      0.2103
     10  O6B       26.6980  -10.0500   98.3180 O.2   216  BDP216     -0.2480
     11  C2        24.4400   -9.0980  102.2420 C.3   216  BDP216      0.1340
     12  O1        27.8990  -16.1460   83.9120 O.3   221  ASG221     -0.3404
     13  OSA       21.9590  -17.2190   97.1470 O.2   217  ASG217     -0.1181
     14  C3        28.2520  -18.7930   89.6130 C.3   219  ASG219      0.1156
     15  C6        30.8490  -13.9750   80.4410 C.3   221  ASG221      0.0730
     16  C7        29.3060  -15.4810   91.0630 C.2   219  ASG219      0.2104
     17  C6        27.3010  -10.3770   99.3630 C.2   216  BDP216      0.3367
     18  O7        30.2200  -15.8790   91.6940 O.2   219  ASG219     -0.2761
     19  O1        27.6750  -17.5580   93.1860 O.3   219  ASG219     -0.3403
     20  C3        27.2200  -18.0200   95.4610 C.3   218  BDP218      0.1149
     21  N         26.4010  -17.5650   81.6570 N.am  221  ASG221     -0.3078
     22  O6        26.5990  -22.6520   92.4250 O.3   219  ASG219     -0.3924
     23  O1        29.1920  -18.4680   88.6420 O.3   220  BDP220     -0.3407
     24  OSB       26.8100  -11.3270   80.6460 O.2   221  ASG221     -0.1181
     25  C4        28.6350  -16.9480   84.7720 C.3   220  BDP220      0.1266
     26  S         21.6840  -16.7440   98.5030 S.O2  217  ASG217      0.2079
     27  O3        27.5650  -19.3800   95.5570 O.3   218  BDP218     -0.3864
     28  O7        25.2730  -17.3920   79.6550 O.2   221  ASG221     -0.2761
     29  O5        27.6940  -19.8160   92.2540 O.3   219  ASG219     -0.3411
     30  O1        25.9270   -7.2440  102.5970 O.3   216  BDP216     -0.3649
     31  O1        24.7930  -15.9580   97.4210 O.3   218  BDP218     -0.3407
     32  OSC       22.0390  -17.7940   99.4490 O.3   217  ASG217     -0.2311
     33  O2        30.2510  -15.9130   88.0010 O.3   220  BDP220     -0.3841
     34  S         27.9790  -12.2000   80.5790 S.O2  221  ASG221      0.2078
     35  C3        27.7400  -16.1540   80.0970 C.3   221  ASG221      0.0015
     36  C2        25.2300  -14.1520   98.8830 C.3   217  ASG217      0.1027
     37  C4        28.5180  -20.2360   90.0150 C.3   219  ASG219      0.1459
     38  C6        21.0600  -12.8450   97.9490 C.3   217  ASG217      0.0731
     39  O5        23.2070  -12.7090   99.3180 O.3   217  ASG217     -0.3411
     40  OSB       29.9590  -22.9950   89.9230 O.2   219  ASG219     -0.1181
     41  C1        27.5350  -18.3440   92.0100 C.3   219  ASG219      0.1808
     42  C2        29.8010  -16.8140   87.0130 C.3   220  BDP220      0.1342
     43  O5        29.3020  -15.0670   82.2200 O.3   221  ASG221     -0.3413
     44  C6        26.6880  -18.5520   84.6380 C.2   220  BDP220      0.3367
     45  C1        28.3580  -16.1840   82.5640 C.3   221  ASG221      0.1784
     46  O5        25.1810  -16.0790   95.1260 O.3   218  BDP218     -0.3315
     47  O3        30.5640  -15.5510   85.1050 O.3   220  BDP220     -0.3864
     48  C1        25.8850   -8.6180  102.2670 C.3   216  BDP216      0.1860
     49  C3        24.3860  -10.5850  101.8990 C.3   216  BDP216      0.1149
     50  C1        24.7040  -12.7480   99.3250 C.3   217  ASG217      0.1808
     51  O4        22.6220  -15.4330   98.8300 O.3   217  ASG217     -0.2071
     52  O7        26.7070  -15.6170  100.7800 O.2   217  ASG217     -0.2761
     53  C4        25.1950  -10.8830  100.6380 C.3   216  BDP216      0.1266
     54  O1        25.2990  -12.2570  100.5150 O.3   217  ASG217     -0.3403
     55  N         28.3510  -16.4340   90.5030 N.am  219  ASG219     -0.3053
     56  C3        24.5600  -14.5960   97.5890 C.3   217  ASG217      0.1156
     57  C8        24.9570  -19.4830   80.6930 C.3   221  ASG221      0.0122
     58  N         26.6970  -14.2660   98.9280 N.am  217  ASG217     -0.3053
     59  OSA       31.0970  -21.3590   88.5500 O.2   219  ASG219     -0.1181
     60  O2        26.7530  -17.9540   97.8030 O.3   218  BDP218     -0.3841
     61  O6A       25.4800  -18.2380   84.5050 O.2   220  BDP220     -0.2480
     62  C3        29.4020  -16.0500   85.7440 C.3   220  BDP220      0.1149
     63  C4        28.3600  -14.7830   79.9930 C.3   221  ASG221      0.1198
     64  C4        26.6340  -17.7080   94.0880 C.3   218  BDP218      0.1266
     65  O6A       26.0500  -14.9670   92.0880 O.2   218  BDP218     -0.2480
     66  O6        31.9600  -13.9060   81.3230 O.3   221  ASG221     -0.3924
     67  O5        26.4550   -8.8420  100.9950 O.3   216  BDP216     -0.3317
     68  O6B       27.2290  -19.5300   84.0680 O.3   220  BDP220     -0.4788
     69  C6        25.5390  -15.9140   92.7270 C.2   218  BDP218      0.3367
     70  C5        26.5730  -10.2200  100.6950 C.3   216  BDP216      0.1863
     71  O6A       28.4680  -10.8220   99.3810 O.3   216  BDP216     -0.4788
     72  C5        26.1320  -16.2670   94.0900 C.3   218  BDP218      0.1863
     73  C5        29.6780  -14.9640   80.7930 C.3   221  ASG221      0.1131
     74  O4        27.4900  -13.7780   80.4890 O.3   221  ASG221     -0.2098
     75  C2        26.1930  -17.7030   96.5330 C.3   218  BDP218      0.1342
     76  O2        23.8510   -8.8720  103.5020 O.3   216  BDP216     -0.3841
     77  O3        23.0440  -10.9820  101.7080 O.3   216  BDP216     -0.3864
     78  C7        27.3520  -15.0000  100.0060 C.2   217  ASG217      0.2104
     79  O6B       24.5830  -16.6000   92.3020 O.3   218  BDP218     -0.4788
     80  S         30.7150  -21.7440   89.9110 S.O2  219  ASG219      0.2079
     81  C5        27.4400  -20.6440   91.0560 C.3   219  ASG219      0.1156
     82  OSC       28.7790  -11.8600   79.4020 O.3   221  ASG221     -0.2311
     83  C1        25.7420  -16.2500   96.4130 C.3   218  BDP218      0.1890
     84  C2        27.2150  -16.3460   81.5040 C.3   221  ASG221      0.0765
     85  O4        29.8200  -20.4870   90.5170 O.3   219  ASG219     -0.2071
     86  C1        28.6730  -17.6620   87.5940 C.3   220  BDP220      0.1890
     87  OSA       28.7760  -12.0020   81.7880 O.2   221  ASG221     -0.1181
     88  C5        22.6070  -13.1140   98.0280 C.3   217  ASG217      0.1156
     89  OSC       31.8880  -21.9550   90.7570 O.3   219  ASG219     -0.2311
     90  C8        28.8840  -15.1520  100.0030 C.3   217  ASG217      0.0122
     91 H          26.9031  -16.9525   85.9946 H     220  BDP220      0.0742
     92 H          22.5804  -14.9755   96.8885 H     217  ASG217      0.0675
     93 H          28.4152  -22.4795   91.5712 H     219  ASG219      0.0584
     94 H          26.9631  -22.6081   90.4846 H     219  ASG219      0.0584
     95 H          29.4550  -17.9728   91.1243 H     219  ASG219      0.0575
     96 H          28.2395  -13.7911   90.2687 H     219  ASG219      0.0322
     97 H          29.9686  -13.5585   90.3636 H     219  ASG219      0.0322
     98 H          28.9970  -13.4900   91.8142 H     219  ASG219      0.0322
     99 H          19.6535  -11.5512   97.4730 H     217  ASG217      0.2095
    100 H          23.9001   -8.5551  101.4946 H     216  BDP216      0.0671
    101 H          27.2518  -18.6797   89.2501 H     219  ASG219      0.0645
    102 H          30.4280  -12.9929   80.3843 H     221  ASG221      0.0584
    103 H          31.2577  -14.3627   79.5313 H     221  ASG221      0.0584
    104 H          28.0981  -17.4238   95.5965 H     218  BDP218      0.0648
    105 H          26.4024  -18.0386   82.5201 H     221  ASG221      0.1491
    106 H          26.9385  -22.3072   93.2657 H     219  ASG219      0.2095
    107 H          29.3324  -17.5912   84.2772 H     220  BDP220      0.0655
    108 H          26.7715  -19.9243   95.4347 H     218  BDP218      0.2100
    109 H          25.5318   -7.1095  103.4726 H     216  BDP216      0.2126
    110 H          21.4982  -18.5806   99.2769 H     217  ASG217      0.2469
    111 H          30.5005  -16.4057   88.7984 H     220  BDP220      0.2101
    112 H          26.9344  -16.2385   79.3978 H     221  ASG221      0.0311
    113 H          28.4726  -16.9022   79.8768 H     221  ASG221      0.0311
    114 H          24.9298  -14.8736   99.6139 H     217  ASG217      0.0575
    115 H          28.4603  -20.8303   89.1271 H     219  ASG219      0.0675
    116 H          20.6405  -13.5909   97.3067 H     217  ASG217      0.0584
    117 H          20.7337  -12.8695   98.9678 H     217  ASG217      0.0584
    118 H          26.5207  -18.1755   91.7138 H     219  ASG219      0.0930
    119 H          30.5837  -17.4825   86.7210 H     220  BDP220      0.0671
    120 H          28.9306  -17.0862   82.5086 H     221  ASG221      0.0929
    121 H          30.3099  -15.0683   84.3029 H     220  BDP220      0.2100
    122 H          26.4417   -9.1559  103.0057 H     216  BDP216      0.0936
    123 H          24.8115  -11.1348  102.7123 H     216  BDP216      0.0648
    124 H          25.0297  -12.0447   98.5873 H     217  ASG217      0.0930
    125 H          24.7003  -10.4784   99.7798 H     216  BDP216      0.0655
    126 H          27.6362  -16.1088   89.9092 H     219  ASG219      0.1492
    127 H          24.9171  -13.9639   96.8030 H     217  ASG217      0.0645
    128 H          25.3550  -19.9730   81.5570 H     221  ASG221      0.0322
    129 H          25.1785  -20.0620   79.8209 H     221  ASG221      0.0322
    130 H          23.8965  -19.3843   80.7957 H     221  ASG221      0.0322
    131 H          27.2410  -13.8434   98.2247 H     217  ASG217      0.1492
    132 H          27.0318  -18.8816   97.8559 H     218  BDP218      0.2101
    133 H          28.7631  -15.2408   86.0302 H     220  BDP220      0.0648
    134 H          28.5472  -14.4442   78.9955 H     221  ASG221      0.0648
    135 H          25.9129  -18.4661   93.8640 H     218  BDP218      0.0655
    136 H          31.6703  -13.5596   82.1815 H     221  ASG221      0.2095
    137 H          28.1374  -19.7110   84.2095 H     220  BDP220      0.2951
    138 H          27.1336  -10.7040  101.4672 H     216  BDP216      0.0741
    139 H          28.8696  -11.0509  100.1960 H     216  BDP216      0.2951
    140 H          26.9565  -15.6105   94.2746 H     218  BDP218      0.0742
    141 H          30.1591  -15.8706   80.4905 H     221  ASG221      0.0647
    142 H          25.3336  -18.3275   96.4053 H     218  BDP218      0.0671
    143 H          24.3398   -9.3638  104.1803 H     216  BDP216      0.2101
    144 H          22.6608  -10.4821  100.9703 H     216  BDP216      0.2100
    145 H          24.2393  -17.2985   92.8235 H     218  BDP218      0.2951
    146 H          26.4589  -20.4606   90.6703 H     219  ASG219      0.0648
    147 H          28.2481  -11.9922   78.6010 H     221  ASG221      0.2469
    148 H          26.5678  -15.5815   96.5402 H     218  BDP218      0.0938
    149 H          26.5215  -15.5555   81.7015 H     221  ASG221      0.0549
    150 H          27.8969  -17.0414   87.9908 H     220  BDP220      0.0938
    151 H          22.9700  -12.5041   97.2273 H     217  ASG217      0.0648
    152 H          32.4132  -22.6902   90.4041 H     219  ASG219      0.2469
    153 H          29.1883  -15.7144  100.8609 H     217  ASG217      0.0322
    154 H          29.3385  -14.1838  100.0316 H     217  ASG217      0.0322
    155 H          29.1899  -15.6635   99.1144 H     217  ASG217      0.0322
@<TRIPOS>BOND
     1     1    25    1
     2     1    44    1
     3     1     3    1
     4     2    26    2
     5     3    86    1
     6     4    56    1
     7     4    88    1
     8     4    51    1
     9     5    81    1
    10     5    22    1
    11     6    41    1
    12     6    14    1
    13     6    55    1
    14     7    16    1
    15     8    38    1
    16     9    57    1
    17     9    21   am
    18     9    28    2
    19    10    17    2
    20    11    48    1
    21    11    49    1
    22    11    76    1
    23    12    25    1
    24    12    45    1
    25    13    26    2
    26    14    37    1
    27    14    23    1
    28    15    73    1
    29    15    66    1
    30    16    55   am
    31    16    18    2
    32    17    70    1
    33    17    71    1
    34    19    64    1
    35    19    41    1
    36    20    75    1
    37    20    64    1
    38    20    27    1
    39    21    84    1
    40    23    86    1
    41    24    34    2
    42    25    62    1
    43    26    51    1
    44    26    32    1
    45    29    41    1
    46    29    81    1
    47    30    48    1
    48    31    56    1
    49    31    83    1
    50    33    42    1
    51    34    74    1
    52    34    87    2
    53    34    82    1
    54    35    84    1
    55    35    63    1
    56    36    50    1
    57    36    56    1
    58    36    58    1
    59    37    81    1
    60    37    85    1
    61    38    88    1
    62    39    50    1
    63    39    88    1
    64    40    80    2
    65    42    86    1
    66    42    62    1
    67    43    45    1
    68    43    73    1
    69    44    61    2
    70    44    68    1
    71    45    84    1
    72    46    83    1
    73    46    72    1
    74    47    62    1
    75    48    67    1
    76    49    53    1
    77    49    77    1
    78    50    54    1
    79    52    78    2
    80    53    70    1
    81    53    54    1
    82    58    78   am
    83    59    80    2
    84    60    75    1
    85    63    73    1
    86    63    74    1
    87    64    72    1
    88    65    69    2
    89    67    70    1
    90    69    72    1
    91    69    79    1
    92    75    83    1
    93    78    90    1
    94    80    85    1
    95    80    89    1
    96     1    91    1
    97     4    92    1
    98     5    93    1
    99     5    94    1
   100     6    95    1
   101     7    96    1
   102     7    97    1
   103     7    98    1
   104     8    99    1
   105    11   100    1
   106    14   101    1
   107    15   102    1
   108    15   103    1
   109    20   104    1
   110    21   105    1
   111    22   106    1
   112    25   107    1
   113    27   108    1
   114    30   109    1
   115    32   110    1
   116    33   111    1
   117    35   112    1
   118    35   113    1
   119    36   114    1
   120    37   115    1
   121    38   116    1
   122    38   117    1
   123    41   118    1
   124    42   119    1
   125    45   120    1
   126    47   121    1
   127    48   122    1
   128    49   123    1
   129    50   124    1
   130    53   125    1
   131    55   126    1
   132    56   127    1
   133    57   128    1
   134    57   129    1
   135    57   130    1
   136    58   131    1
   137    60   132    1
   138    62   133    1
   139    63   134    1
   140    64   135    1
   141    66   136    1
   142    68   137    1
   143    70   138    1
   144    71   139    1
   145    72   140    1
   146    73   141    1
   147    75   142    1
   148    76   143    1
   149    77   144    1
   150    79   145    1
   151    81   146    1
   152    82   147    1
   153    83   148    1
   154    84   149    1
   155    86   150    1
   156    88   151    1
   157    89   152    1
   158    90   153    1
   159    90   154    1
   160    90   155    1
