@<TRIPOS>MOLECULE
3ILR_LIGAND_1.pdb
 64 66 0 0 0
SMALL
GASTEIGER

@<TRIPOS>ATOM
      1  O1        24.3210   18.1030   23.2310 O.3   377  SGN377     -0.3656
      2  C4        31.7620   15.6810   20.6430 C.3     2  IXD2        0.0128
      3  O3S       26.8830   22.1510   21.3030 O.3   377  SGN377     -0.2626
      4  S2        29.3990   14.1730   24.3150 S.O2  377  SGN377      0.2384
      5  C1        25.4710   18.6460   23.8570 C.3   377  SGN377      0.1767
      6  O3S       28.8760   14.4830   16.8990 O.2     2  IXD2       -0.1181
      7  S2        28.7940   15.5620   26.8480 S.O2  377  SGN377      0.2384
      8  O5S       27.9820   14.7280   27.7380 O.2   377  SGN377     -0.1156
      9  O4        28.1800   16.0590   21.9440 O.3   377  SGN377     -0.3397
     10  O6        27.8420   16.2820   25.8430 O.3   377  SGN377     -0.2108
     11  O6S       29.7580   14.7900   26.0560 O.3   377  SGN377     -0.0219
     12  O3        27.8260   18.8400   21.0230 O.3   377  SGN377     -0.3873
     13  O6S       29.6960   13.8450   22.9120 O.2   377  SGN377     -0.1156
     14  O4S       29.5040   16.5460   27.7020 O.2   377  SGN377     -0.1156
     15  C3        30.9550   15.3250   19.4190 C.3     2  IXD2        0.0914
     16  C5        26.5960   16.5490   23.7660 C.3   377  SGN377      0.1518
     17  S1        26.0390   21.8130   22.4340 S.3   377  SGN377     -0.0198
     18  O1S       24.8220   22.6380   22.4880 O.3   377  SGN377     -0.2626
     19  O5S       28.5930   13.1540   24.9890 O.2   377  SGN377     -0.1156
     20  O6        28.5950   15.4920   24.3260 O.3   377  SGN377     -0.2108
     21  C1        29.1280   16.1950   21.0040 C.3     2  IXD2        0.1914
     22  O1S       27.1190   13.1570   17.8430 O.2     2  IXD2       -0.1181
     23  C3        26.9270   18.1850   21.8960 C.3   377  SGN377      0.1058
     24  O2S       26.7310   21.9030   23.7250 O.3   377  SGN377     -0.2626
     25  C4        27.6020   17.0950   22.7400 C.3   377  SGN377      0.1227
     26  O2        28.6520   14.4460   19.3760 O.3     2  IXD2       -0.2048
     27  O62       32.2140   18.8740   22.0440 O.2     2  IXD2       -0.2481
     28  S         27.9030   14.4090   18.0140 S.O2    2  IXD2        0.2080
     29  C2        29.4570   15.6030   19.6310 C.3     2  IXD2        0.1660
     30  O61       33.6440   17.2400   22.0720 O.3     2  IXD2       -0.4788
     31  C6        27.2360   15.5300   24.6970 C.3   377  SGN377      0.1128
     32  O2S       27.0690   15.6360   17.9300 O.3     2  IXD2       -0.2311
     33  C6        32.5070   17.6950   21.8170 C.2     2  IXD2        0.3341
     34  O3        31.2030   13.9650   19.0290 O.3     2  IXD2       -0.3889
     35  N         25.6420   20.2890   22.1460 N.3   377  SGN377     -0.1845
     36  C5        31.4790   16.8400   21.2400 C.3     2  IXD2        0.1603
     37  O5        30.0890   17.2230   21.2860 O.3     2  IXD2       -0.3340
     38  C6        27.1910   15.5780   24.7970 C.3   377  SGN377      0.1128
     39  O4S       30.6060   14.4810   25.0880 O.3   377  SGN377     -0.0219
     40  C2        26.3910   19.2590   22.8330 C.3   377  SGN377      0.1076
     41  O5        26.1390   17.6300   24.5360 O.3   377  SGN377     -0.3360
     42 H          23.8498   18.8050   22.7555 H     377  SGN377      0.2125
     43 H          32.7916   15.7103   20.3533 H       2  IXD2        0.0321
     44 H          31.5172   14.9300   21.3648 H       2  IXD2        0.0321
     45 H          26.3710   22.0730   20.4828 H     377  SGN377      0.2439
     46 H          25.1692   19.4099   24.5428 H     377  SGN377      0.0925
     47 H          27.3496   19.5159   20.5159 H     377  SGN377      0.2100
     48 H          31.2714   15.9548   18.6139 H       2  IXD2        0.0622
     49 H          24.3573   22.5848   21.6382 H     377  SGN377      0.2439
     50 H          28.4699   15.3513   21.0035 H       2  IXD2        0.0939
     51 H          26.1655   17.7026   21.3195 H     377  SGN377      0.0638
     52 H          27.5355   21.3617   23.6990 H     377  SGN377      0.2439
     53 H          28.4240   17.5363   23.2639 H     377  SGN377      0.0654
     54 H          29.2118   16.3523   18.9076 H       2  IXD2        0.0698
     55 H          33.8409   16.3421   21.8903 H       2  IXD2        0.2951
     56 H          26.7848   14.5684   24.5677 H     377  SGN377      0.0615
     57 H          27.1099   15.7944   25.7261 H     377  SGN377      0.0615
     58 H          26.5872   15.6425   17.0881 H       2  IXD2        0.2469
     59 H          30.9252   13.3685   19.7417 H       2  IXD2        0.2099
     60 H          25.7518   20.1293   21.1446 H     377  SGN377      0.1485
     61 H          32.4149   17.1717   21.6386 H       2  IXD2        0.0715
     62 H          26.4042   14.9835   25.2123 H     377  SGN377      0.0615
     63 H          27.9104   14.9574   24.3048 H     377  SGN377      0.0615
     64 H          27.2516   19.7029   23.2882 H     377  SGN377      0.0554
@<TRIPOS>BOND
     1     1     5    1
     2     2    15    1
     3     2    36    1
     4     3    17    1
     5     4    20    1
     6     4    39    1
     7     4    19    2
     8     4    13    2
     9     5    40    1
    10     5    41    1
    11     6    28    2
    12     7    10    1
    13     7    14    2
    14     7     8    2
    15     7    11    1
    16     9    25    1
    17     9    21    1
    18    10    38    1
    19    12    23    1
    20    15    29    1
    21    15    34    1
    22    16    25    1
    23    16    31    1
    24    16    38    1
    25    16    41    1
    26    17    35    1
    27    17    18    1
    28    17    24    1
    29    20    31    1
    30    21    29    1
    31    21    37    1
    32    22    28    2
    33    23    40    1
    34    23    25    1
    35    26    28    1
    36    26    29    1
    37    27    33    2
    38    28    32    1
    39    30    33    1
    40    33    36    1
    41    35    40    1
    42    36    37    1
    43    39    11    1
    44     1    42    1
    45     2    43    1
    46     2    44    1
    47     3    45    1
    48     5    46    1
    49    12    47    1
    50    15    48    1
    51    18    49    1
    52    21    50    1
    53    23    51    1
    54    24    52    1
    55    25    53    1
    56    29    54    1
    57    30    55    1
    58    31    56    1
    59    31    57    1
    60    32    58    1
    61    34    59    1
    62    35    60    1
    63    36    61    1
    64    38    62    1
    65    38    63    1
    66    40    64    1
