@<TRIPOS>MOLECULE
3ILR_LIGAND_1_uncharged.pdb
 60 62 0 0 0
SMALL
GASTEIGER

@<TRIPOS>ATOM
      1  O1        24.3210   18.1030   23.2310 O.3   377  SGN377     -0.3656
      2  C4        31.7620   15.6810   20.6430 C.3     2  IXD2        0.0128
      3  O3S       26.8830   22.1510   21.3030 O.3   377  SGN377     -0.0534
      4  S2        29.3990   14.1730   24.3150 S.O2  377  SGN377      0.2384
      5  C1        25.4710   18.6460   23.8570 C.3   377  SGN377      0.1767
      6  O3S       28.8760   14.4830   16.8990 O.2     2  IXD2       -0.3452
      7  S2        28.7940   15.5620   26.8480 S.O2  377  SGN377      0.2384
      8  O5S       27.9820   14.7280   27.7380 O.2   377  SGN377     -0.1156
      9  O4        28.1800   16.0590   21.9440 O.3   377  SGN377     -0.3397
     10  O6        27.8420   16.2820   25.8430 O.3   377  SGN377     -0.2108
     11  O6S       29.7580   14.7900   26.0560 O.3   377  SGN377     -0.0219
     12  O3        27.8260   18.8400   21.0230 O.3   377  SGN377     -0.3873
     13  O6S       29.6960   13.8450   22.9120 O.2   377  SGN377     -0.1156
     14  O4S       29.5040   16.5460   27.7020 O.2   377  SGN377     -0.1156
     15  C3        30.9550   15.3250   19.4190 C.3     2  IXD2        0.0912
     16  C5        26.5960   16.5490   23.7660 C.3   377  SGN377      0.1518
     17  S1        26.0390   21.8130   22.4340 S.3   377  SGN377      0.0767
     18  O1S       24.8220   22.6380   22.4880 O.3   377  SGN377     -0.0534
     19  O5S       28.5930   13.1540   24.9890 O.2   377  SGN377     -0.1156
     20  O6        28.5950   15.4920   24.3260 O.3   377  SGN377     -0.2108
     21  C1        29.1280   16.1950   21.0040 C.3     2  IXD2        0.1913
     22  O1S       27.1190   13.1570   17.8430 O.2     2  IXD2       -0.3452
     23  C3        26.9270   18.1850   21.8960 C.3   377  SGN377      0.1058
     24  O2S       26.7310   21.9030   23.7250 O.3   377  SGN377     -0.0534
     25  C4        27.6020   17.0950   22.7400 C.3   377  SGN377      0.1227
     26  O2        28.6520   14.4460   19.3760 O.3     2  IXD2       -0.2436
     27  O62       32.2140   18.8740   22.0440 O.2     2  IXD2       -0.2481
     28  S         27.9030   14.4090   18.0140 S.3     2  IXD2       -0.0004
     29  C2        29.4570   15.6030   19.6310 C.3     2  IXD2        0.1620
     30  O61       33.6440   17.2400   22.0720 O.3     2  IXD2       -0.4788
     31  C6        27.2360   15.5300   24.6970 C.3   377  SGN377      0.1128
     32  O2S       27.0690   15.6360   17.9300 O.3     2  IXD2       -0.2682
     33  C6        32.5070   17.6950   21.8170 C.2     2  IXD2        0.3341
     34  O3        31.2030   13.9650   19.0290 O.3     2  IXD2       -0.3889
     35  N         25.6420   20.2890   22.1460 N.3   377  SGN377     -0.1775
     36  C5        31.4790   16.8400   21.2400 C.3     2  IXD2        0.1603
     37  O5        30.0890   17.2230   21.2860 O.3     2  IXD2       -0.3340
     38  C6        27.1910   15.5780   24.7970 C.3   377  SGN377      0.1128
     39  O4S       30.6060   14.4810   25.0880 O.3   377  SGN377     -0.0219
     40  C2        26.3910   19.2590   22.8330 C.3   377  SGN377      0.1079
     41  O5        26.1390   17.6300   24.5360 O.3   377  SGN377     -0.3360
     42  H         23.8500   18.8050   22.7560 H     377  SGN377      0.2125
     43  H         32.7920   15.7100   20.3530 H       2  IXD2        0.0321
     44  H         31.5170   14.9300   21.3650 H       2  IXD2        0.0321
     45  H         25.1690   19.4100   24.5430 H     377  SGN377      0.0925
     46  H         27.3500   19.5160   20.5160 H     377  SGN377      0.2100
     47  H         31.2710   15.9550   18.6140 H       2  IXD2        0.0622
     48  H         28.4700   15.3510   21.0030 H       2  IXD2        0.0939
     49  H         26.1660   17.7030   21.3200 H     377  SGN377      0.0638
     50  H         28.4240   17.5360   23.2640 H     377  SGN377      0.0654
     51  H         29.2120   16.3520   18.9080 H       2  IXD2        0.0697
     52  H         33.8410   16.3420   21.8900 H       2  IXD2        0.2951
     53  H         26.7850   14.5680   24.5680 H     377  SGN377      0.0615
     54  H         27.1100   15.7940   25.7260 H     377  SGN377      0.0615
     55  H         30.9250   13.3680   19.7420 H       2  IXD2        0.2099
     56  H         25.7520   20.1290   21.1450 H     377  SGN377      0.1487
     57  H         32.4150   17.1720   21.6390 H       2  IXD2        0.0715
     58  H         26.4040   14.9830   25.2120 H     377  SGN377      0.0615
     59  H         27.9100   14.9570   24.3050 H     377  SGN377      0.0615
     60  H         27.2520   19.7030   23.2880 H     377  SGN377      0.0554
@<TRIPOS>BOND
     1     1     5    1
     2     1    42    1
     3     2    15    1
     4     2    36    1
     5     2    43    1
     6     2    44    1
     7     3    17    1
     8     4    20    1
     9     4    39    1
    10     4    19    2
    11     4    13    2
    12     5    40    1
    13     5    41    1
    14     5    45    1
    15     6    28    2
    16     7    10    1
    17     7    14    2
    18     7     8    2
    19     7    11    1
    20     9    25    1
    21     9    21    1
    22    10    38    1
    23    11    39    1
    24    12    23    1
    25    12    46    1
    26    15    29    1
    27    15    34    1
    28    15    47    1
    29    16    25    1
    30    16    31    1
    31    16    38    1
    32    16    41    1
    33    17    35    1
    34    17    18    1
    35    17    24    1
    36    20    31    1
    37    21    29    1
    38    21    37    1
    39    21    48    1
    40    22    28    2
    41    23    40    1
    42    23    25    1
    43    23    49    1
    44    25    50    1
    45    26    28    1
    46    26    29    1
    47    27    33    2
    48    28    32    1
    49    29    51    1
    50    30    33    1
    51    30    52    1
    52    31    53    1
    53    31    54    1
    54    33    36    1
    55    34    55    1
    56    35    40    1
    57    35    56    1
    58    36    37    1
    59    36    57    1
    60    38    58    1
    61    38    59    1
    62    40    60    1
