@<TRIPOS>MOLECULE
3ILR_LIGAND_2_uncharged.pdb
 53 54 0 0 0
SMALL
GASTEIGER

@<TRIPOS>ATOM
      1  O3        19.4010   23.1080   23.4680 O.3   378  SGN378     -0.3874
      2  C4        18.6180   20.8250   23.5490 C.3   378  SGN378      0.1176
      3  O2S       15.0560   24.5600   21.9960 O.3   378  SGN378     -0.0534
      4  C5        21.6980   18.3760   24.1930 C.3   379  IXD379      0.1603
      5  O3S       16.8070   25.6470   23.2370 O.3   378  SGN378     -0.0534
      6  O1S       22.8980   22.9610   20.8270 O.2   379  IXD379     -0.3452
      7  C4        22.3890   19.4200   24.6290 C.3   379  IXD379      0.0128
      8  N         17.3620   23.8210   21.6630 N.3   378  SGN378     -0.1775
      9  C2        21.3600   20.8640   22.9430 C.3   379  IXD379      0.1620
     10  S1        16.4210   25.0820   21.9490 S.3   378  SGN378      0.0767
     11  O6        16.5580   19.0660   24.7770 O.3   378  SGN378     -0.2520
     12  O2        22.5310   20.8700   22.1320 O.3   379  IXD379     -0.2436
     13  C1        16.4060   21.5860   21.8760 C.3   378  SGN378      0.1762
     14  O2S       23.3780   20.8250   19.8090 O.2   379  IXD379     -0.3452
     15  O4        19.8810   20.1950   23.6310 O.3   378  SGN378     -0.3401
     16  O3        22.5320   21.7560   24.9280 O.3   379  IXD379     -0.3889
     17  O62       20.3990   16.7340   25.1030 O.2   379  IXD379     -0.2481
     18  O1S       16.6650   26.0260   20.8580 O.3   378  SGN378     -0.0534
     19  C2        17.2880   22.6510   22.5140 C.3   378  SGN378      0.1079
     20  O5        16.3840   20.4230   22.6730 O.3   378  SGN378     -0.3416
     21  C3        18.6910   22.1230   22.7570 C.3   378  SGN378      0.1055
     22  O61       22.5020   16.9020   25.7930 O.3   379  IXD379     -0.4788
     23  C6        21.5260   17.2550   25.0780 C.2   379  IXD379      0.3341
     24  O5        21.0990   18.4570   22.8710 O.3   379  IXD379     -0.3340
     25  S         22.4800   21.5420   20.7470 S.3   379  IXD379     -0.0004
     26  C6        17.4870   18.6700   23.7970 C.3   378  SGN378      0.1035
     27  O1        16.8970   21.2780   20.5940 O.3   378  SGN378     -0.3656
     28  C5        17.6610   19.8550   22.8750 C.3   378  SGN378      0.1158
     29  C3        21.6990   20.7310   24.4260 C.3   379  IXD379      0.0912
     30  O6S       15.9210   16.7480   24.8040 O.2   378  SGN378     -0.3452
     31  O3S       21.0910   21.5100   20.2240 O.3   379  IXD379     -0.2682
     32  O4S       14.9770   18.2590   26.4480 O.2   378  SGN378     -0.3452
     33  C1        20.4660   19.6970   22.5320 C.3   379  IXD379      0.1913
     34  O5S       14.3370   18.4360   24.1430 O.3   378  SGN378     -0.2682
     35  S2        15.4030   18.0830   25.0740 S.3   378  SGN378     -0.0008
     36  H         20.3040   22.7970   23.6380 H     378  SGN378      0.2100
     37  H         18.2790   21.0760   24.5320 H     378  SGN378      0.0650
     38  H         21.8490   17.4450   23.6890 H     379  IXD379      0.0715
     39  H         23.3230   19.4470   24.1080 H     379  IXD379      0.0321
     40  H         22.5100   19.2930   25.6840 H     379  IXD379      0.0321
     41  H         17.1540   23.5080   20.7150 H     378  SGN378      0.1487
     42  H         20.8560   21.7960   22.7970 H     379  IXD379      0.0697
     43  H         15.4080   21.9630   21.7960 H     378  SGN378      0.0925
     44  H         22.7010   21.6020   25.8710 H     379  IXD379      0.2099
     45  H         16.8490   22.9160   23.4530 H     378  SGN378      0.0554
     46  H         19.1890   21.9150   21.8330 H     378  SGN378      0.0638
     47  H         23.3240   17.3460   25.7160 H     379  IXD379      0.2951
     48  H         17.1140   17.8280   23.2520 H     378  SGN378      0.0610
     49  H         18.4180   18.3800   24.2380 H     378  SGN378      0.0610
     50  H         17.8020   20.9370   20.6680 H     378  SGN378      0.2125
     51  H         18.0690   19.5870   21.9230 H     378  SGN378      0.0648
     52  H         20.7750   20.8030   24.9610 H     379  IXD379      0.0622
     53  H         20.0380   19.5010   21.5710 H     379  IXD379      0.0939
@<TRIPOS>BOND
     1     1    21    1
     2     1    36    1
     3     2    21    1
     4     2    28    1
     5     2    15    1
     6     2    37    1
     7     3    10    1
     8     4     7    1
     9     4    24    1
    10     4    23    1
    11     4    38    1
    12     5    10    1
    13     6    25    2
    14     7    29    1
    15     7    39    1
    16     7    40    1
    17     8    19    1
    18     8    10    1
    19     8    41    1
    20     9    33    1
    21     9    12    1
    22     9    29    1
    23     9    42    1
    24    10    18    1
    25    11    26    1
    26    11    35    1
    27    12    25    1
    28    13    19    1
    29    13    27    1
    30    13    20    1
    31    13    43    1
    32    14    25    2
    33    15    33    1
    34    16    29    1
    35    16    44    1
    36    17    23    2
    37    19    21    1
    38    19    45    1
    39    20    28    1
    40    21    46    1
    41    22    23    1
    42    22    47    1
    43    24    33    1
    44    25    31    1
    45    26    28    1
    46    26    48    1
    47    26    49    1
    48    27    50    1
    49    28    51    1
    50    29    52    1
    51    30    35    2
    52    32    35    2
    53    33    53    1
    54    34    35    1
