@<TRIPOS>MOLECULE
3ILR_LIGAND_2.pdb
 58 59 0 0 0
SMALL
GASTEIGER

@<TRIPOS>ATOM
      1  O3        19.4010   23.1080   23.4680 O.3   378  SGN378     -0.3874
      2  C4        18.6180   20.8250   23.5490 C.3   378  SGN378      0.1176
      3  O2S       15.0560   24.5600   21.9960 O.3   378  SGN378     -0.2626
      4  C5        21.6980   18.3760   24.1930 C.3   379  IXD379      0.1603
      5  O3S       16.8070   25.6470   23.2370 O.3   378  SGN378     -0.2626
      6  O1S       22.8980   22.9610   20.8270 O.2   379  IXD379     -0.1181
      7  C4        22.3890   19.4200   24.6290 C.3   379  IXD379      0.0128
      8  N         17.3620   23.8210   21.6630 N.3   378  SGN378     -0.1845
      9  C2        21.3600   20.8640   22.9430 C.3   379  IXD379      0.1660
     10  S1        16.4210   25.0820   21.9490 S.3   378  SGN378     -0.0198
     11  O6        16.5580   19.0660   24.7770 O.3   378  SGN378     -0.2131
     12  O2        22.5310   20.8700   22.1320 O.3   379  IXD379     -0.2048
     13  C1        16.4060   21.5860   21.8760 C.3   378  SGN378      0.1762
     14  O2S       23.3780   20.8250   19.8090 O.2   379  IXD379     -0.1181
     15  O4        19.8810   20.1950   23.6310 O.3   378  SGN378     -0.3401
     16  O3        22.5320   21.7560   24.9280 O.3   379  IXD379     -0.3889
     17  O62       20.3990   16.7340   25.1030 O.2   379  IXD379     -0.2481
     18  O1S       16.6650   26.0260   20.8580 O.3   378  SGN378     -0.2626
     19  C2        17.2880   22.6510   22.5140 C.3   378  SGN378      0.1076
     20  O5        16.3840   20.4230   22.6730 O.3   378  SGN378     -0.3416
     21  C3        18.6910   22.1230   22.7570 C.3   378  SGN378      0.1055
     22  O61       22.5020   16.9020   25.7930 O.3   379  IXD379     -0.4788
     23  C6        21.5260   17.2550   25.0780 C.2   379  IXD379      0.3341
     24  O5        21.0990   18.4570   22.8710 O.3   379  IXD379     -0.3340
     25  S         22.4800   21.5420   20.7470 S.O2  379  IXD379      0.2080
     26  C6        17.4870   18.6700   23.7970 C.3   378  SGN378      0.1076
     27  O1        16.8970   21.2780   20.5940 O.3   378  SGN378     -0.3656
     28  C5        17.6610   19.8550   22.8750 C.3   378  SGN378      0.1159
     29  C3        21.6990   20.7310   24.4260 C.3   379  IXD379      0.0914
     30  O6S       15.9210   16.7480   24.8040 O.2   378  SGN378     -0.1181
     31  O3S       21.0910   21.5100   20.2240 O.3   379  IXD379     -0.2311
     32  O4S       14.9770   18.2590   26.4480 O.2   378  SGN378     -0.1181
     33  C1        20.4660   19.6970   22.5320 C.3   379  IXD379      0.1914
     34  O5S       14.3370   18.4360   24.1430 O.3   378  SGN378     -0.2311
     35  S2        15.4030   18.0830   25.0740 S.O2  378  SGN378      0.2076
     36 H          20.3038   22.7966   23.6377 H     378  SGN378      0.2100
     37 H          18.2794   21.0759   24.5325 H     378  SGN378      0.0650
     38 H          14.9707   23.9444   22.7408 H     378  SGN378      0.2439
     39 H          21.8495   17.4445   23.6887 H     379  IXD379      0.0715
     40 H          16.6341   25.0000   23.9387 H     378  SGN378      0.2439
     41 H          23.3233   19.4469   24.1082 H     379  IXD379      0.0321
     42 H          22.5104   19.2932   25.6845 H     379  IXD379      0.0321
     43 H          17.1542   23.5083   20.7146 H     378  SGN378      0.1485
     44 H          20.8556   21.7963   22.7972 H     379  IXD379      0.0698
     45 H          15.4077   21.9627   21.7962 H     378  SGN378      0.0925
     46 H          22.7012   21.6025   25.8707 H     379  IXD379      0.2099
     47 H          16.1148   26.8149   20.9839 H     378  SGN378      0.2439
     48 H          16.8489   22.9165   23.4529 H     378  SGN378      0.0554
     49 H          19.1895   21.9149   21.8334 H     378  SGN378      0.0638
     50 H          23.3237   17.3457   25.7163 H     379  IXD379      0.2951
     51 H          17.1145   17.8279   23.2520 H     378  SGN378      0.0611
     52 H          18.4178   18.3799   24.2378 H     378  SGN378      0.0611
     53 H          17.8019   20.9366   20.6678 H     378  SGN378      0.2125
     54 H          18.0688   19.5869   21.9228 H     378  SGN378      0.0648
     55 H          20.7752   20.8026   24.9611 H     379  IXD379      0.0622
     56 H          20.5037   21.9788   20.8373 H     379  IXD379      0.2469
     57 H          20.0375   19.5009   21.5713 H     379  IXD379      0.0939
     58 H          14.6476   18.3095   23.2328 H     378  SGN378      0.2469
@<TRIPOS>BOND
     1     1    21    1
     2     2    21    1
     3     2    28    1
     4     2    15    1
     5     3    10    1
     6     4     7    1
     7     4    24    1
     8     4    23    1
     9     5    10    1
    10     6    25    2
    11     7    29    1
    12     8    19    1
    13     8    10    1
    14     9    33    1
    15     9    12    1
    16     9    29    1
    17    10    18    1
    18    11    26    1
    19    11    35    1
    20    12    25    1
    21    13    19    1
    22    13    27    1
    23    13    20    1
    24    14    25    2
    25    15    33    1
    26    16    29    1
    27    17    23    2
    28    19    21    1
    29    20    28    1
    30    22    23    1
    31    24    33    1
    32    25    31    1
    33    26    28    1
    34    30    35    2
    35    32    35    2
    36    34    35    1
    37     1    36    1
    38     2    37    1
    39     3    38    1
    40     4    39    1
    41     5    40    1
    42     7    41    1
    43     7    42    1
    44     8    43    1
    45     9    44    1
    46    13    45    1
    47    16    46    1
    48    18    47    1
    49    19    48    1
    50    21    49    1
    51    22    50    1
    52    26    51    1
    53    26    52    1
    54    27    53    1
    55    28    54    1
    56    29    55    1
    57    31    56    1
    58    33    57    1
    59    34    58    1
