@<TRIPOS>MOLECULE
3IN9_LIGAND_1_uncharged.pdb
 56 57 0 0 0
SMALL
GASTEIGER

@<TRIPOS>ATOM
      1  O15       37.7800    2.7520    9.7750 O.3   501  H1S501     -0.3656
      2  N14       34.9700    2.6720   10.3070 N.3   501  H1S501     -0.1845
      3  O21       42.2720   -0.1850   13.4440 O.2   501  H1S501     -0.1181
      4  S20       34.2940    1.9450    9.0130 S.3   501  H1S501     -0.0198
      5  O11       40.6920    0.1310   11.6760 O.3   501  H1S501     -0.2131
      6  O34       35.3050    5.7410   14.8560 O.2   501  H1S501     -0.2417
      7  O9        35.2380    2.5040   13.1730 O.3   501  H1S501     -0.3874
      8  O5        38.0440    0.6520   10.7710 O.3   501  H1S501     -0.3416
      9  O32       37.3160   -0.4120   17.8140 O.2   501  H1S501     -0.1181
     10  C8        35.9150    1.7710   10.9810 C.3   501  H1S501      0.1076
     11  C27       36.4450    5.7430   15.3640 C.2   501  H1S501      0.3717
     12  C24       38.3750    4.3720   16.2230 C.2   501  H1S501     -0.0041
     13  O31       36.5540    0.9410   19.7090 O.2   501  H1S501     -0.1181
     14  O3        38.0170    2.2920   14.0840 O.3   501  H1S501     -0.3308
     15  C4        36.3640    2.4100   12.2960 C.3   501  H1S501      0.1055
     16  O25       40.1390    2.8190   15.6610 O.3   501  H1S501     -0.3848
     17  C7        37.1920    2.0980   15.2620 C.3   501  H1S501      0.2340
     18  O22       41.4080   -2.0960   12.1770 O.2   501  H1S501     -0.1181
     19  C2        38.5690    1.2970   11.9430 C.3   501  H1S501      0.1159
     20  C1        37.4560    1.5660   12.9600 C.3   501  H1S501      0.1186
     21  O13       36.3680    3.2550   15.4840 O.2   501  H1S501     -0.4538
     22  O23       42.9290   -0.5010   11.1060 O.3   501  H1S501     -0.2311
     23  O30       32.9710    2.5910    8.7250 O.3   501  H1S501     -0.2626
     24  C19       37.0840    4.3930   15.6980 C.2   501  H1S501      0.2060
     25  C17       39.0730    3.0590   16.5850 C.3   501  H1S501      0.1116
     26  C12       38.0630    1.9120   16.5070 C.3   501  H1S501      0.1808
     27  C6        39.6120    0.3770   12.5800 C.3   501  H1S501      0.1076
     28  S16       41.8120   -0.6530   12.0950 S.O2  501  H1S501      0.2076
     29  S26       37.4960    0.8870   18.5440 S.O2  501  H1S501      0.2080
     30  O28       35.1950    2.0990    7.8240 O.3   501  H1S501     -0.2626
     31  O18       37.2150    1.9750   17.6580 O.3   501  H1S501     -0.2032
     32  O35       37.1020    6.7780   15.6170 O.3   501  H1S501     -0.4750
     33  O33       38.9080    0.9920   19.0400 O.3   501  H1S501     -0.2311
     34  C10       37.1280    1.5160   10.0820 C.3   501  H1S501      0.1762
     35  O29       34.0870    0.4870    9.2960 O.3   501  H1S501     -0.2626
     36  H         38.5460    2.5810    9.2060 H     501  H1S501      0.2125
     37  H         35.4670    3.5070    9.9990 H     501  H1S501      0.1485
     38  H         34.5450    3.0380   12.7540 H     501  H1S501      0.2100
     39  H         35.4360    0.8360   11.1820 H     501  H1S501      0.0554
     40  H         38.8730    5.2640   16.3710 H     501  H1S501      0.0637
     41  H         36.7600    3.3830   12.0950 H     501  H1S501      0.0638
     42  H         40.7790    3.5460   15.7100 H     501  H1S501      0.2103
     43  H         36.5910    1.2280   15.0960 H     501  H1S501      0.1085
     44  H         39.0070    2.2310   11.6600 H     501  H1S501      0.0648
     45  H         37.0340    0.6430   13.3000 H     501  H1S501      0.0651
     46  H         43.1900    0.4320   11.0530 H     501  H1S501      0.2469
     47  H         33.1050    3.5340    8.5420 H     501  H1S501      0.2439
     48  H         39.4680    3.1220   17.5780 H     501  H1S501      0.0668
     49  H         38.5770    0.9750   16.4640 H     501  H1S501      0.0714
     50  H         39.9940    0.8400   13.4660 H     501  H1S501      0.0611
     51  H         39.1460   -0.5560   12.8190 H     501  H1S501      0.0611
     52  H         36.0500    1.6810    8.0100 H     501  H1S501      0.2439
     53  H         37.9550    6.7100   16.0000 H     501  H1S501      0.2955
     54  H         39.0960    0.2530   19.6400 H     501  H1S501      0.2469
     55  H         36.8050    1.0580    9.1700 H     501  H1S501      0.0925
     56  H         34.9420    0.0690    9.4820 H     501  H1S501      0.2439
@<TRIPOS>BOND
     1     1    34    1
     2     1    36    1
     3     2    10    1
     4     2     4    1
     5     2    37    1
     6     3    28    2
     7     4    30    1
     8     4    35    1
     9     4    23    1
    10     5    27    1
    11     5    28    1
    12     6    11    2
    13     7    15    1
    14     7    38    1
    15     8    19    1
    16     8    34    1
    17     9    29    2
    18    10    15    1
    19    10    34    1
    20    10    39    1
    21    11    24    1
    22    11    32    1
    23    12    25    1
    24    12    24    2
    25    12    40    1
    26    13    29    2
    27    14    20    1
    28    14    17    1
    29    15    20    1
    30    15    41    1
    31    16    25    1
    32    16    42    1
    33    17    26    1
    34    17    21    1
    35    17    43    1
    36    18    28    2
    37    19    20    1
    38    19    27    1
    39    19    44    1
    40    20    45    1
    41    21    24    1
    42    22    28    1
    43    22    46    1
    44    23    47    1
    45    25    26    1
    46    25    48    1
    47    26    31    1
    48    26    49    1
    49    27    50    1
    50    27    51    1
    51    29    31    1
    52    29    33    1
    53    30    52    1
    54    32    53    1
    55    33    54    1
    56    34    55    1
    57    35    56    1
