@<TRIPOS>MOLECULE
3IN9_LIGAND_2_uncharged.pdb
 56 57 0 0 0
SMALL
GASTEIGER

@<TRIPOS>ATOM
      1  O28       30.7890   10.1960    9.1880 O.3   601  H1S601     -0.2626
      2  N14       31.5540    9.9610   11.6220 N.3   601  H1S601     -0.1845
      3  S20       31.8800    9.6420   10.0560 S.3   601  H1S601     -0.0198
      4  C7        26.6820   11.8460   14.3840 C.3   601  H1S601      0.2340
      5  O30       31.9800    8.1600    9.8510 O.3   601  H1S601     -0.2626
      6  O33       22.5850   13.4800   15.6880 O.2   601  H1S601     -0.1181
      7  C4        29.7420   10.5990   13.1460 C.3   601  H1S601      0.1055
      8  O29       33.1800   10.2880    9.6780 O.3   601  H1S601     -0.2626
      9  C12       26.0740   12.4110   15.6700 C.3   601  H1S601      0.1808
     10  C1        28.2630   10.3640   13.4600 C.3   601  H1S601      0.1186
     11  C24       27.8380   14.1570   15.3450 C.2   601  H1S601     -0.0041
     12  O5        28.4090    8.1500   12.4770 O.3   601  H1S601     -0.3416
     13  O34       29.3350   15.6080   13.4910 O.2   601  H1S601     -0.2417
     14  C2        28.0420    8.8630   13.6710 C.3   601  H1S601      0.1159
     15  O3        27.9000   11.1060   14.6530 O.3   601  H1S601     -0.3308
     16  S16       24.2950    9.0440   13.0770 S.O2  601  H1S601      0.2076
     17  O15       30.6070    7.8030   13.2250 O.3   601  H1S601     -0.3656
     18  O35       28.2260   14.7320   11.7920 O.3   601  H1S601     -0.4750
     19  O32       24.1900   13.7790   17.5120 O.2   601  H1S601     -0.1181
     20  O11       25.7150    8.9850   12.9030 O.3   601  H1S601     -0.2131
     21  O22       24.0640    7.7450   13.7860 O.2   601  H1S601     -0.1181
     22  C8        30.1240    9.7830   11.9100 C.3   601  H1S601      0.1076
     23  O9        29.9530   11.9890   12.8860 O.3   601  H1S601     -0.3874
     24  C17       27.0980   13.3020   16.3760 C.3   601  H1S601      0.1116
     25  O23       23.8520    9.1830   11.6490 O.3   601  H1S601     -0.2311
     26  O13       26.9300   12.9330   13.4740 O.2   601  H1S601     -0.4538
     27  C19       27.7170   13.9240   13.9780 C.2   601  H1S601      0.2060
     28  O25       28.0450   12.4870   17.0740 O.3   601  H1S601     -0.3848
     29  O18       24.9330   13.1970   15.3130 O.3   601  H1S601     -0.2032
     30  C10       29.8020    8.3050   12.1540 C.3   601  H1S601      0.1762
     31  C6        26.5670    8.5970   13.9860 C.3   601  H1S601      0.1076
     32  C27       28.4840   14.8270   13.0090 C.2   601  H1S601      0.3717
     33  S26       23.8840   13.0010   16.2670 S.O2  601  H1S601      0.2080
     34  O21       24.1840   10.3270   13.8480 O.2   601  H1S601     -0.1181
     35  O31       23.7740   11.5430   16.6000 O.3   601  H1S601     -0.2311
     36  H         30.7250   11.1550    9.3210 H     601  H1S601      0.2439
     37  H         32.0940    9.3270   12.2110 H     601  H1S601      0.1485
     38  H         25.9920   11.1570   13.9430 H     601  H1S601      0.1085
     39  H         31.1390    7.7420   10.0950 H     601  H1S601      0.2439
     40  H         30.3450   10.2970   13.9770 H     601  H1S601      0.0638
     41  H         33.1150   11.2470    9.8110 H     601  H1S601      0.2439
     42  H         25.7930   11.6140   16.3260 H     601  H1S601      0.0714
     43  H         27.6500   10.7020   12.6510 H     601  H1S601      0.0651
     44  H         28.4430   14.9270   15.6720 H     601  H1S601      0.0637
     45  H         28.6470    8.5300   14.4890 H     601  H1S601      0.0648
     46  H         30.3990    6.8670   13.3750 H     601  H1S601      0.2125
     47  H         27.5760   14.1250   11.4970 H     601  H1S601      0.2955
     48  H         29.5620   10.1230   11.0650 H     601  H1S601      0.0554
     49  H         29.4070   12.2640   12.1330 H     601  H1S601      0.2100
     50  H         26.5880   13.9370   17.0700 H     601  H1S601      0.0668
     51  H         24.0670   10.0730   11.3290 H     601  H1S601      0.2469
     52  H         28.5050   11.9130   16.4420 H     601  H1S601      0.2103
     53  H         30.0160    7.7520   11.2640 H     601  H1S601      0.0925
     54  H         26.2930    9.1530   14.8580 H     601  H1S601      0.0611
     55  H         26.4450    7.5460   14.1460 H     601  H1S601      0.0611
     56  H         23.0630   11.4120   17.2470 H     601  H1S601      0.2469
@<TRIPOS>BOND
     1     1     3    1
     2     1    36    1
     3     2    22    1
     4     2     3    1
     5     2    37    1
     6     3     8    1
     7     3     5    1
     8     4    15    1
     9     4     9    1
    10     4    26    1
    11     4    38    1
    12     5    39    1
    13     6    33    2
    14     7    10    1
    15     7    22    1
    16     7    23    1
    17     7    40    1
    18     8    41    1
    19     9    24    1
    20     9    29    1
    21     9    42    1
    22    10    14    1
    23    10    15    1
    24    10    43    1
    25    11    24    1
    26    11    27    2
    27    11    44    1
    28    12    14    1
    29    12    30    1
    30    13    32    2
    31    14    31    1
    32    14    45    1
    33    16    20    1
    34    16    34    2
    35    16    21    2
    36    16    25    1
    37    17    30    1
    38    17    46    1
    39    18    32    1
    40    18    47    1
    41    19    33    2
    42    20    31    1
    43    22    30    1
    44    22    48    1
    45    23    49    1
    46    24    28    1
    47    24    50    1
    48    25    51    1
    49    26    27    1
    50    27    32    1
    51    28    52    1
    52    29    33    1
    53    30    53    1
    54    31    54    1
    55    31    55    1
    56    33    35    1
    57    35    56    1
