@<TRIPOS>MOLECULE
3INA_LIGAND_1.pdb
 231 238 0 0 0
SMALL
GASTEIGER

@<TRIPOS>ATOM
      1  S1        32.5310    8.2090    9.9890 S.3   506  SUS506     -0.0198
      2  C6        27.9790   17.2100   11.6790 C.3   508  SGN508      0.1076
      3  C1        42.2540    3.0700   19.8400 C.3   502  SGN502      0.1795
      4  C6        26.9930    7.0760   13.7500 C.3   506  SUS506      0.1076
      5  O61       29.6650   13.8570   12.6660 O.2   507  IDS507     -0.2480
      6  O1S       31.8990    9.5200    9.6290 O.3   506  SUS506     -0.2626
      7  O1        37.6660    0.9630   13.2530 O.3   504  SGN504     -0.3406
      8  O3S       40.8630    3.3120   10.5390 O.2   503  IDS503     -0.1181
      9  C2        30.7290    7.8850   11.7620 C.3   506  SUS506      0.1104
     10  O1S       24.1470    8.8540   17.0400 O.2   507  IDS507     -0.1181
     11  C1        37.0100   -0.1330   12.5630 C.3   504  SGN504      0.1795
     12  O1S       45.4480   -1.4900   22.0770 O.2   501  IDS501     -0.1181
     13  C5        38.4850    1.3380   15.5460 C.3   503  IDS503      0.1863
     14  O3        25.7000   12.6970   16.4500 O.3   507  IDS507     -0.3863
     15  O9S       31.3120    9.9620   15.2990 O.2   506  SUS506     -0.1181
     16  O61       36.5400    2.7280   15.6040 O.2   503  IDS503     -0.2480
     17  O3        40.5470   -0.6870   14.8450 O.3   503  IDS503     -0.3863
     18  O1        26.2600   13.9450   13.6140 O.3   508  SGN508     -0.3406
     19  C3        32.0790    4.1640   10.8720 C.3   505  IDS505      0.1176
     20  O4S       39.4440    7.0260   16.1940 O.2   502  SGN502     -0.1181
     21  C1        33.4260    2.9030   12.6110 C.3   505  IDS505      0.1916
     22  O8S       32.0730   11.8290   13.9180 O.2   506  SUS506     -0.1181
     23  C5        31.1150    3.0930   12.8780 C.3   505  IDS505      0.1863
     24  O5        46.2750    1.6530   19.6800 O.3   501  IDS501     -0.3316
     25  O5        27.6020   11.1410   13.1860 O.3   507  IDS507     -0.3314
     26  O4S       32.4340   -3.7600   14.0610 O.2   504  SGN504     -0.1181
     27  O1        30.9280    5.5490   12.5670 O.3   506  SUS506     -0.3406
     28  O62       45.4040    4.6290   17.9130 O.2   501  IDS501     -0.2480
     29  C5        45.9010    3.0380   19.6200 C.3   501  IDS501      0.1863
     30  O2S       22.9460   16.7000   16.1000 O.3   508  SGN508     -0.2626
     31  O3S       22.2660   14.3980   16.5870 O.3   508  SGN508     -0.2626
     32  O1        47.5720    2.0910   21.5720 O.3   501  IDS501     -0.3648
     33  O2S       34.0210    8.3160    9.8550 O.3   506  SUS506     -0.2626
     34  O3S       43.0180   -1.5090   21.7750 O.2   501  IDS501     -0.1181
     35  S         35.3030    5.4920   11.7200 S.O2  505  IDS505      0.2080
     36  C1        26.0790   15.2600   14.2020 C.3   508  SGN508      0.1795
     37  O6        27.8900   18.4970   12.2960 O.3   508  SGN508     -0.2131
     38  S         41.3480    2.5020   11.7050 S.O2  503  IDS503      0.2080
     39  O62       30.2010    2.4350   14.9820 O.2   505  IDS505     -0.2480
     40  O6        26.1610    7.5710   12.6960 O.3   506  SUS506     -0.2131
     41  O1        43.5490    2.4310   19.7070 O.3   502  SGN502     -0.3406
     42  O5        35.8820   -0.6070   13.3180 O.3   504  SGN504     -0.3413
     43  S2        24.7510    7.7220   12.8960 S.O2  506  SUS506      0.2076
     44  O3        39.9820    0.5690   18.1870 O.3   502  SGN502     -0.3874
     45  S2        40.8680    6.6630   15.8850 S.O2  502  SGN502      0.2076
     46  O2S       44.0100   -0.2540   23.6300 O.3   501  IDS501     -0.2311
     47  O3        23.1530   16.4910   12.1960 O.3   508  SGN508     -0.3874
     48  O3S       32.0240    7.1450    9.0620 O.3   506  SUS506     -0.2626
     49  O6S       24.2200    6.5610   13.6810 O.3   506  SUS506     -0.2311
     50  C4        30.9480    4.2580   11.9000 C.3   505  IDS505      0.1267
     51  O2S       40.8260    0.0540   23.0010 O.3   502  SGN502     -0.2626
     52  C2        45.2750    1.3780   21.8760 C.3   501  IDS501      0.1682
     53  C4        28.9180    8.6330   13.2730 C.3   506  SUS506      0.1202
     54  O5S       41.0480    6.1530   14.4850 O.2   502  SGN502     -0.1181
     55  O1S       42.2830    3.3280   12.5380 O.2   503  IDS503     -0.1181
     56  O5        42.0890    4.0660   18.8180 O.3   502  SGN502     -0.3413
     57  O1S       36.0050    4.3230   12.3480 O.2   505  IDS505     -0.1181
     58  C3        41.1220    1.4220   18.3160 C.3   502  SGN502      0.1055
     59  C3        24.4400   15.9110   12.4230 C.3   508  SGN508      0.1051
     60  C1        27.3730   10.1640   14.2150 C.3   507  IDS507      0.1916
     61  O61       28.8120    3.2800   13.4880 O.3   505  IDS505     -0.4788
     62  C2        24.6620   15.7690   13.9300 C.3   508  SGN508      0.1078
     63  C4        27.0490   13.1150   14.5060 C.3   507  IDS507      0.1267
     64  C2        40.6740    1.4300   13.6680 C.3   503  IDS503      0.1684
     65  C6        28.5860   13.2360   12.5430 C.2   507  IDS507      0.3367
     66  C6        37.0450    1.6440   15.9670 C.2   503  IDS503      0.3367
     67  C3        39.8890    0.1320   13.8760 C.3   503  IDS503      0.1176
     68  C1        40.5410    2.3690   14.8710 C.3   503  IDS503      0.1916
     69  O6S       41.9750    7.4460   16.5220 O.3   502  SGN502     -0.2311
     70  S3        31.8400   10.3480   13.9480 S.O2  506  SUS506      0.2079
     71  O6        40.9910    5.4410   16.6180 O.3   502  SGN502     -0.2131
     72  C3        35.4390    1.2880   11.2160 C.3   504  SGN504      0.1055
     73  O4        25.3870   16.8780   10.4180 O.3   508  SGN508     -0.3865
     74  C4        44.5690    3.2410   20.3460 C.3   501  IDS501      0.1267
     75  C3        26.1370   12.1150   15.2200 C.3   507  IDS507      0.1176
     76  S1        38.4940   -0.2450    9.5190 S.3   504  SGN504     -0.0198
     77  C5        42.2060    3.5010   17.5010 C.3   502  SGN502      0.1159
     78  O3S       41.3170    2.4390   22.7490 O.3   502  SGN502     -0.2626
     79  C3        44.7380    2.8090   21.8040 C.3   501  IDS501      0.1175
     80  S2        33.2160   -2.6620   14.7190 S.O2  504  SGN504      0.2076
     81  O1S       39.7180    0.3790    8.9180 O.3   504  SGN504     -0.2626
     82  O5        27.0260   16.1840   13.6410 O.3   508  SGN508     -0.3414
     83  S1        40.6700    1.2480   22.1070 S.3   502  SGN502     -0.0198
     84  O2S       42.0760    1.2910   11.2010 O.3   503  IDS503     -0.2311
     85  C6        33.7280   -0.2650   14.3110 C.3   504  SGN504      0.1076
     86  O3        30.8940   10.0000   12.9300 O.3   506  SUS506     -0.2080
     87  O4S       24.4960    8.9950   13.6470 O.2   506  SUS506     -0.1181
     88  O2S       24.7670   11.1090   17.7230 O.2   507  IDS507     -0.1181
     89  C4        38.4550    0.4040   14.3350 C.3   503  IDS503      0.1267
     90  C4        41.0760    2.5010   17.2330 C.3   502  SGN502      0.1176
     91  C2        36.5860    0.2770   11.1500 C.3   504  SGN504      0.1078
     92  O5        28.7450    6.4790   12.1730 O.3   506  SUS506     -0.3413
     93  O2S       35.4880    6.7550   12.5080 O.2   505  IDS505     -0.1181
     94  C2        41.1430    2.0250   19.7210 C.3   502  SGN502      0.1078
     95  O2        26.1690    9.8260   16.2500 O.3   507  IDS507     -0.2047
     96  C5        34.8220    0.3570   13.4380 C.3   504  SGN504      0.1159
     97  S         44.1920   -0.6780   22.2020 S.O2  501  IDS501      0.2080
     98  O1        28.5770    9.3910   14.4620 O.3   507  IDS507     -0.3400
     99  C1        30.1300    6.4740   11.7810 C.3   506  SUS506      0.1796
    100  C6        29.9540    2.9360   13.8640 C.2   505  IDS505      0.3367
    101  O1        41.3010    1.8130   15.9750 O.3   503  IDS503     -0.3401
    102  C5        28.1260   12.3670   13.7160 C.3   507  IDS507      0.1863
    103  S1        23.3680   15.2610   16.0470 S.3   508  SGN508     -0.0198
    104  O5S       34.5930   -3.1540   15.0530 O.2   504  SGN504     -0.1181
    105  O62       36.4470    0.7880   16.6540 O.3   503  IDS503     -0.4788
    106  O5S       24.0690    7.7900   11.5620 O.2   506  SUS506     -0.1181
    107  C4        25.5190   16.8260   11.8410 C.3   508  SGN508      0.1111
    108  O6S       28.8020   19.8370   10.5380 O.2   508  SGN508     -0.1181
    109  O3S       37.5820   -0.7120    8.4240 O.3   504  SGN504     -0.2626
    110  O7S       33.1420    9.6440   13.7030 O.3   506  SUS506     -0.2311
    111  C1        46.5460    1.2520   21.0320 C.3   501  IDS501      0.1886
    112  O3S       35.2450    5.5760   10.2260 O.3   505  IDS505     -0.2311
    113  N         37.7290    0.8670   10.4360 N.3   504  SGN504     -0.1845
    114  N         23.6700   14.8460   14.4990 N.3   508  SGN508     -0.1845
    115  O61       45.9310    2.5790   17.2790 O.3   501  IDS501     -0.4788
    116  O2S       38.8820   -1.4240   10.3610 O.3   504  SGN504     -0.2626
    117  O1        33.1520    1.5860   12.0630 O.3   505  IDS505     -0.3401
    118  O2        33.9350    5.2050   12.0440 O.3   505  IDS505     -0.2047
    119  C6        45.7330    3.4480   18.1560 C.2   501  IDS501      0.3367
    120  O1S       39.2120    1.5200   21.8830 O.3   502  SGN502     -0.2626
    121  C5        28.4830    7.1700   13.4060 C.3   506  SUS506      0.1160
    122  O3        45.6550    3.6940   22.4530 O.3   501  IDS501     -0.3863
    123  O3S       24.0680   10.6700   15.4110 O.3   507  IDS507     -0.2311
    124  O6S       32.5180   -2.2430   15.9780 O.3   504  SGN504     -0.2311
    125  O2        40.2210    2.1050   12.4930 O.3   503  IDS503     -0.2047
    126  O3        31.7940    3.0800    9.9850 O.3   505  IDS505     -0.3863
    127  O4S       28.5560   20.7350   12.8050 O.2   508  SGN508     -0.1181
    128  C4        34.2970    0.6910   12.0380 C.3   504  SGN504      0.1176
    129  C2        26.8950   10.8180   15.5140 C.3   507  IDS507      0.1684
    130  S         24.8110   10.1230   16.5930 S.O2  507  IDS507      0.2080
    131  O5        39.1590    2.5640   15.2210 O.3   503  IDS503     -0.3314
    132  O6        33.3170   -1.5470   13.8260 O.3   504  SGN504     -0.2131
    133  C6        42.1780    4.6530   16.4940 C.3   502  SGN502      0.1076
    134  C5        26.8960   16.2690   12.2120 C.3   508  SGN508      0.1155
    135  O62       27.8680   13.2770   11.5220 O.3   507  IDS507     -0.4788
    136  N         32.1800    7.8220   11.5330 N.3   506  SUS506     -0.1844
    137  O5        32.3810    3.2190   13.5440 O.3   505  IDS505     -0.3314
    138  N         41.3900    0.9370   20.6790 N.3   502  SGN502     -0.1845
    139  O3        34.9740    1.5550    9.8910 O.3   504  SGN504     -0.3874
    140  C2        33.4620    3.9650   11.5040 C.3   505  IDS505      0.1684
    141  O2        44.2850    0.4790   21.3660 O.3   501  IDS501     -0.2047
    142  S2        28.8580   19.5060   12.0000 S.O2  508  SGN508      0.2076
    143  O5S       30.2280   19.0040   12.3490 O.3   508  SGN508     -0.2311
    144  O1S       24.6050   15.0760   16.8750 O.3   508  SGN508     -0.2626
    145  C3        30.4310    8.6510   13.0530 C.3   506  SUS506      0.1398
    146 H          27.8573   17.3199   10.6216 H     508  SGN508      0.0611
    147 H          28.9366   16.7896   11.9050 H     508  SGN508      0.0611
    148 H          42.1974    3.5390   20.8001 H     502  SGN502      0.0927
    149 H          26.8069    7.6497   14.6338 H     506  SUS506      0.0611
    150 H          26.7552    6.0433   13.8978 H     506  SUS506      0.0611
    151 H          32.2247   10.2110   10.2268 H     506  SUS506      0.2439
    152 H          30.2673    8.4172   10.9567 H     506  SUS506      0.0555
    153 H          37.7142   -0.9336   12.4734 H     504  SGN504      0.0927
    154 H          39.0131    0.8616   16.3454 H     503  IDS503      0.0742
    155 H          25.2193   13.5192   16.2659 H     507  IDS507      0.2100
    156 H          41.4567   -0.8613   14.5569 H     503  IDS503      0.2100
    157 H          32.1198    5.0969   10.3497 H     505  IDS505      0.0649
    158 H          34.3819    2.8972   13.0917 H     505  IDS505      0.0939
    159 H          31.0977    2.1868   12.3092 H     505  IDS505      0.0742
    160 H          46.6596    3.6324   20.0849 H     501  IDS501      0.0741
    161 H          22.1460   16.8223   15.5652 H     508  SGN508      0.2439
    162 H          21.4675   14.5195   16.0499 H     508  SGN508      0.2439
    163 H          48.3746    2.0074   21.0338 H     501  IDS501      0.2126
    164 H          34.3509    9.0039   10.4540 H     506  SUS506      0.2439
    165 H          26.2336   15.1842   15.2580 H     508  SGN508      0.0927
    166 H          40.0109   -0.1154   18.8738 H     502  SGN502      0.2100
    167 H          43.9472   -1.0399   24.1951 H     501  IDS501      0.2469
    168 H          22.4678   15.9118   12.5646 H     508  SGN508      0.2100
    169 H          31.0603    7.0743    9.1472 H     506  SUS506      0.2439
    170 H          24.6647    6.5225   14.5422 H     506  SUS506      0.2469
    171 H          29.9978    4.1832   11.4138 H     505  IDS505      0.0656
    172 H          41.7691   -0.1210   23.1452 H     502  SGN502      0.2439
    173 H          45.5015    1.1383   22.8939 H     501  IDS501      0.0699
    174 H          28.4094    9.0877   12.4487 H     506  SUS506      0.0651
    175 H          42.0249    0.8637   18.1823 H     502  SGN502      0.0638
    176 H          24.4924   14.9511   11.9532 H     508  SGN508      0.0638
    177 H          26.6012    9.5083   13.8696 H     507  IDS507      0.0939
    178 H          28.6912    3.6507   12.6360 H     505  IDS505      0.2951
    179 H          24.5451   16.7263   14.3934 H     508  SGN508      0.0554
    180 H          27.5261   13.7391   15.2325 H     507  IDS507      0.0656
    181 H          41.7042    1.1629   13.5570 H     503  IDS503      0.0699
    182 H          39.8489   -0.3741   12.9341 H     503  IDS503      0.0649
    183 H          40.9332    3.3338   14.6258 H     503  IDS503      0.0939
    184 H          41.7130    7.7050   17.4193 H     502  SGN502      0.2469
    185 H          35.7781    2.1956   11.6699 H     504  SGN504      0.0638
    186 H          24.5137   17.2313   10.1870 H     508  SGN508      0.2100
    187 H          44.2756    4.2692   20.3057 H     501  IDS501      0.0656
    188 H          25.2991   11.8873   14.5947 H     507  IDS507      0.0649
    189 H          43.1245    2.9598   17.4099 H     502  SGN502      0.0648
    190 H          42.2592    2.2576   22.8914 H     502  SGN502      0.2439
    191 H          43.7864    2.8457   22.2919 H     501  IDS501      0.0649
    192 H          40.3079    0.6811    9.6263 H     504  SGN504      0.2439
    193 H          41.4750    0.7537   10.6616 H     503  IDS503      0.2469
    194 H          32.8807    0.3884   14.3202 H     504  SGN504      0.0611
    195 H          34.1268   -0.3971   15.2951 H     504  SGN504      0.0611
    196 H          37.9902   -0.5164   14.6207 H     503  IDS503      0.0656
    197 H          40.1470    3.0317   17.2167 H     502  SGN502      0.0650
    198 H          36.2526   -0.5927   10.6234 H     504  SGN504      0.0554
    199 H          40.2078    2.5042   19.9224 H     502  SGN502      0.0554
    200 H          35.1604    1.2658   13.8903 H     504  SGN504      0.0648
    201 H          30.1578    6.1131   10.7741 H     506  SUS506      0.0927
    202 H          28.9419   12.1526   14.3742 H     507  IDS507      0.0742
    203 H          36.8814   -0.0067   16.8943 H     503  IDS503      0.2951
    204 H          25.4104   17.8136   12.2382 H     508  SGN508      0.0646
    205 H          37.3249    0.0438    7.8730 H     504  SGN504      0.2439
    206 H          33.7757    9.8855   14.3966 H     506  SUS506      0.2469
    207 H          46.8709    0.2326   21.0458 H     501  IDS501      0.0937
    208 H          35.1233    4.6874    9.8567 H     505  IDS505      0.2469
    209 H          37.3927    1.6190    9.8346 H     504  SGN504      0.1485
    210 H          24.0338   13.8936   14.4669 H     508  SGN508      0.1485
    211 H          46.1761    1.7096   17.5279 H     501  IDS501      0.2951
    212 H          39.4726   -1.1324   11.0731 H     504  SGN504      0.2439
    213 H          38.7833    1.7052   22.7332 H     502  SGN502      0.2439
    214 H          29.0403    6.7156   14.1984 H     506  SUS506      0.0648
    215 H          46.5144    3.6547   22.0049 H     501  IDS501      0.2100
    216 H          23.1524   10.8636   15.6660 H     507  IDS507      0.2469
    217 H          31.6273   -1.9246   15.7632 H     504  SGN504      0.2469
    218 H          31.7638    2.2507   10.4872 H     505  IDS505      0.2100
    219 H          33.9499   -0.2147   11.5862 H     504  SGN504      0.0650
    220 H          27.7063   11.1383   16.1338 H     507  IDS507      0.0699
    221 H          43.0286    5.2800   16.6620 H     502  SGN502      0.0611
    222 H          42.1963    4.2336   15.5098 H     502  SGN502      0.0611
    223 H          27.0035   15.2942   11.7841 H     508  SGN508      0.0648
    224 H          27.0692   12.7882   11.4911 H     507  IDS507      0.2951
    225 H          32.6474    8.4785   12.1583 H     506  SUS506      0.1485
    226 H          41.0177    0.0665   20.2995 H     502  SGN502      0.1485
    227 H          34.6677    0.7298    9.4834 H     504  SGN504      0.2100
    228 H          34.1271    3.6263   10.7373 H     505  IDS505      0.0699
    229 H          30.4234   18.2092   11.8285 H     508  SGN508      0.2469
    230 H          24.4190   15.3243   17.7940 H     508  SGN508      0.2439
    231 H          30.9294    8.1963   13.8835 H     506  SUS506      0.0666
@<TRIPOS>BOND
     1     1   136    1
     2     1     6    1
     3     1    33    1
     4     1    48    1
     5     2   134    1
     6     2    37    1
     7     3    94    1
     8     3    41    1
     9     3    56    1
    10     4   121    1
    11     4    40    1
    12     5    65    2
    13     7    89    1
    14     7    11    1
    15     8    38    2
    16     9   136    1
    17     9    99    1
    18     9   145    1
    19    10   130    2
    20    11    91    1
    21    11    42    1
    22    12    97    2
    23    13    89    1
    24    13    66    1
    25    13   131    1
    26    14    75    1
    27    15    70    2
    28    16    66    2
    29    17    67    1
    30    18    63    1
    31    18    36    1
    32    19   140    1
    33    19    50    1
    34    19   126    1
    35    20    45    2
    36    21   140    1
    37    21   117    1
    38    21   137    1
    39    22    70    2
    40    23    50    1
    41    23   100    1
    42    23   137    1
    43    24   111    1
    44    24    29    1
    45    25    60    1
    46    25   102    1
    47    26    80    2
    48    27    50    1
    49    27    99    1
    50    28   119    2
    51    29    74    1
    52    29   119    1
    53    30   103    1
    54    31   103    1
    55    32   111    1
    56    34    97    2
    57    35   118    1
    58    35    57    2
    59    35    93    2
    60    35   112    1
    61    36    62    1
    62    36    82    1
    63    37   142    1
    64    38   125    1
    65    38    55    2
    66    38    84    1
    67    39   100    2
    68    40    43    1
    69    41    74    1
    70    42    96    1
    71    43    87    2
    72    43   106    2
    73    43    49    1
    74    44    58    1
    75    45    71    1
    76    45    54    2
    77    45    69    1
    78    46    97    1
    79    47    59    1
    80    51    83    1
    81    52   111    1
    82    52    79    1
    83    52   141    1
    84    53   145    1
    85    53   121    1
    86    53    98    1
    87    56    77    1
    88    58    94    1
    89    58    90    1
    90    59    62    1
    91    59   107    1
    92    60   129    1
    93    60    98    1
    94    61   100    1
    95    62   114    1
    96    63    75    1
    97    63   102    1
    98    64    68    1
    99    64    67    1
   100    64   125    1
   101    65   102    1
   102    65   135    1
   103    66   105    1
   104    67    89    1
   105    68   101    1
   106    68   131    1
   107    70    86    1
   108    70   110    1
   109    71   133    1
   110    72    91    1
   111    72   128    1
   112    72   139    1
   113    73   107    1
   114    74    79    1
   115    75   129    1
   116    76   113    1
   117    76    81    1
   118    76   116    1
   119    76   109    1
   120    77    90    1
   121    77   133    1
   122    78    83    1
   123    79   122    1
   124    80   132    1
   125    80   104    2
   126    80   124    1
   127    82   134    1
   128    83   138    1
   129    83   120    1
   130    85    96    1
   131    85   132    1
   132    86   145    1
   133    88   130    2
   134    90   101    1
   135    91   113    1
   136    92    99    1
   137    92   121    1
   138    94   138    1
   139    95   129    1
   140    95   130    1
   141    96   128    1
   142    97   141    1
   143   103   114    1
   144   103   144    1
   145   107   134    1
   146   108   142    2
   147   115   119    1
   148   117   128    1
   149   118   140    1
   150   123   130    1
   151   127   142    2
   152   142   143    1
   153     2   146    1
   154     2   147    1
   155     3   148    1
   156     4   149    1
   157     4   150    1
   158     6   151    1
   159     9   152    1
   160    11   153    1
   161    13   154    1
   162    14   155    1
   163    17   156    1
   164    19   157    1
   165    21   158    1
   166    23   159    1
   167    29   160    1
   168    30   161    1
   169    31   162    1
   170    32   163    1
   171    33   164    1
   172    36   165    1
   173    44   166    1
   174    46   167    1
   175    47   168    1
   176    48   169    1
   177    49   170    1
   178    50   171    1
   179    51   172    1
   180    52   173    1
   181    53   174    1
   182    58   175    1
   183    59   176    1
   184    60   177    1
   185    61   178    1
   186    62   179    1
   187    63   180    1
   188    64   181    1
   189    67   182    1
   190    68   183    1
   191    69   184    1
   192    72   185    1
   193    73   186    1
   194    74   187    1
   195    75   188    1
   196    77   189    1
   197    78   190    1
   198    79   191    1
   199    81   192    1
   200    84   193    1
   201    85   194    1
   202    85   195    1
   203    89   196    1
   204    90   197    1
   205    91   198    1
   206    94   199    1
   207    96   200    1
   208    99   201    1
   209   102   202    1
   210   105   203    1
   211   107   204    1
   212   109   205    1
   213   110   206    1
   214   111   207    1
   215   112   208    1
   216   113   209    1
   217   114   210    1
   218   115   211    1
   219   116   212    1
   220   120   213    1
   221   121   214    1
   222   122   215    1
   223   123   216    1
   224   124   217    1
   225   126   218    1
   226   128   219    1
   227   129   220    1
   228   133   221    1
   229   133   222    1
   230   134   223    1
   231   135   224    1
   232   136   225    1
   233   138   226    1
   234   139   227    1
   235   140   228    1
   236   143   229    1
   237   144   230    1
   238   145   231    1
