@<TRIPOS>MOLECULE
3INA_LIGAND_1_uncharged.pdb
 210 217 0 0 0
SMALL
GASTEIGER

@<TRIPOS>ATOM
      1  S1        32.5310    8.2090    9.9890 S.3   506  SUS506      0.0767
      2  C6        27.9790   17.2100   11.6790 C.3   508  SGN508      0.1035
      3  C1        42.2540    3.0700   19.8400 C.3   502  SGN502      0.1795
      4  C6        26.9930    7.0760   13.7500 C.3   506  SUS506      0.1035
      5  O61       29.6650   13.8570   12.6660 O.2   507  IDS507     -0.2480
      6  O1S       31.8990    9.5200    9.6290 O.3   506  SUS506     -0.0534
      7  O1        37.6660    0.9630   13.2530 O.3   504  SGN504     -0.3406
      8  O3S       40.8630    3.3120   10.5390 O.2   503  IDS503     -0.3452
      9  C2        30.7290    7.8850   11.7620 C.3   506  SUS506      0.1105
     10  O1S       24.1470    8.8540   17.0400 O.2   507  IDS507     -0.3452
     11  C1        37.0100   -0.1330   12.5630 C.3   504  SGN504      0.1795
     12  O1S       45.4480   -1.4900   22.0770 O.2   501  IDS501     -0.3452
     13  C5        38.4850    1.3380   15.5460 C.3   503  IDS503      0.1863
     14  O3        25.7000   12.6970   16.4500 O.3   507  IDS507     -0.3863
     15  O9S       31.3120    9.9620   15.2990 O.2   506  SUS506     -0.3452
     16  O61       36.5400    2.7280   15.6040 O.2   503  IDS503     -0.2480
     17  O3        40.5470   -0.6870   14.8450 O.3   503  IDS503     -0.3863
     18  O1        26.2600   13.9450   13.6140 O.3   508  SGN508     -0.3406
     19  C3        32.0790    4.1640   10.8720 C.3   505  IDS505      0.1174
     20  O4S       39.4440    7.0260   16.1940 O.2   502  SGN502     -0.3452
     21  C1        33.4260    2.9030   12.6110 C.3   505  IDS505      0.1915
     22  O8S       32.0730   11.8290   13.9180 O.2   506  SUS506     -0.3452
     23  C5        31.1150    3.0930   12.8780 C.3   505  IDS505      0.1863
     24  O5        46.2750    1.6530   19.6800 O.3   501  IDS501     -0.3316
     25  O5        27.6020   11.1410   13.1860 O.3   507  IDS507     -0.3314
     26  O4S       32.4340   -3.7600   14.0610 O.2   504  SGN504     -0.3452
     27  O1        30.9280    5.5490   12.5670 O.3   506  SUS506     -0.3406
     28  O62       45.4040    4.6290   17.9130 O.2   501  IDS501     -0.2480
     29  C5        45.9010    3.0380   19.6200 C.3   501  IDS501      0.1863
     30  O2S       22.9460   16.7000   16.1000 O.3   508  SGN508     -0.0534
     31  O3S       22.2660   14.3980   16.5870 O.3   508  SGN508     -0.0534
     32  O1        47.5720    2.0910   21.5720 O.3   501  IDS501     -0.3648
     33  O2S       34.0210    8.3160    9.8550 O.3   506  SUS506     -0.0534
     34  O3S       43.0180   -1.5090   21.7750 O.2   501  IDS501     -0.3452
     35  S         35.3030    5.4920   11.7200 S.3   505  IDS505     -0.0004
     36  C1        26.0790   15.2600   14.2020 C.3   508  SGN508      0.1795
     37  O6        27.8900   18.4970   12.2960 O.3   508  SGN508     -0.2520
     38  S         41.3480    2.5020   11.7050 S.3   503  IDS503     -0.0004
     39  O62       30.2010    2.4350   14.9820 O.2   505  IDS505     -0.2480
     40  O6        26.1610    7.5710   12.6960 O.3   506  SUS506     -0.2520
     41  O1        43.5490    2.4310   19.7070 O.3   502  SGN502     -0.3406
     42  O5        35.8820   -0.6070   13.3180 O.3   504  SGN504     -0.3413
     43  S2        24.7510    7.7220   12.8960 S.3   506  SUS506     -0.0008
     44  O3        39.9820    0.5690   18.1870 O.3   502  SGN502     -0.3874
     45  S2        40.8680    6.6630   15.8850 S.3   502  SGN502     -0.0008
     46  O2S       44.0100   -0.2540   23.6300 O.3   501  IDS501     -0.2682
     47  O3        23.1530   16.4910   12.1960 O.3   508  SGN508     -0.3874
     48  O3S       32.0240    7.1450    9.0620 O.3   506  SUS506     -0.0534
     49  O6S       24.2200    6.5610   13.6810 O.3   506  SUS506     -0.2682
     50  C4        30.9480    4.2580   11.9000 C.3   505  IDS505      0.1267
     51  O2S       40.8260    0.0540   23.0010 O.3   502  SGN502     -0.0534
     52  C2        45.2750    1.3780   21.8760 C.3   501  IDS501      0.1642
     53  C4        28.9180    8.6330   13.2730 C.3   506  SUS506      0.1201
     54  O5S       41.0480    6.1530   14.4850 O.2   502  SGN502     -0.3452
     55  O1S       42.2830    3.3280   12.5380 O.2   503  IDS503     -0.3452
     56  O5        42.0890    4.0660   18.8180 O.3   502  SGN502     -0.3413
     57  O1S       36.0050    4.3230   12.3480 O.2   505  IDS505     -0.3452
     58  C3        41.1220    1.4220   18.3160 C.3   502  SGN502      0.1055
     59  C3        24.4400   15.9110   12.4230 C.3   508  SGN508      0.1051
     60  C1        27.3730   10.1640   14.2150 C.3   507  IDS507      0.1915
     61  O61       28.8120    3.2800   13.4880 O.3   505  IDS505     -0.4788
     62  C2        24.6620   15.7690   13.9300 C.3   508  SGN508      0.1080
     63  C4        27.0490   13.1150   14.5060 C.3   507  IDS507      0.1267
     64  C2        40.6740    1.4300   13.6680 C.3   503  IDS503      0.1644
     65  C6        28.5860   13.2360   12.5430 C.2   507  IDS507      0.3367
     66  C6        37.0450    1.6440   15.9670 C.2   503  IDS503      0.3367
     67  C3        39.8890    0.1320   13.8760 C.3   503  IDS503      0.1174
     68  C1        40.5410    2.3690   14.8710 C.3   503  IDS503      0.1915
     69  O6S       41.9750    7.4460   16.5220 O.3   502  SGN502     -0.2682
     70  S3        31.8400   10.3480   13.9480 S.3   506  SUS506     -0.0005
     71  O6        40.9910    5.4410   16.6180 O.3   502  SGN502     -0.2520
     72  C3        35.4390    1.2880   11.2160 C.3   504  SGN504      0.1055
     73  O4        25.3870   16.8780   10.4180 O.3   508  SGN508     -0.3865
     74  C4        44.5690    3.2410   20.3460 C.3   501  IDS501      0.1267
     75  C3        26.1370   12.1150   15.2200 C.3   507  IDS507      0.1174
     76  S1        38.4940   -0.2450    9.5190 S.3   504  SGN504      0.0767
     77  C5        42.2060    3.5010   17.5010 C.3   502  SGN502      0.1158
     78  O3S       41.3170    2.4390   22.7490 O.3   502  SGN502     -0.0534
     79  C3        44.7380    2.8090   21.8040 C.3   501  IDS501      0.1174
     80  S2        33.2160   -2.6620   14.7190 S.3   504  SGN504     -0.0008
     81  O1S       39.7180    0.3790    8.9180 O.3   504  SGN504     -0.0534
     82  O5        27.0260   16.1840   13.6410 O.3   508  SGN508     -0.3414
     83  S1        40.6700    1.2480   22.1070 S.3   502  SGN502      0.0767
     84  O2S       42.0760    1.2910   11.2010 O.3   503  IDS503     -0.2682
     85  C6        33.7280   -0.2650   14.3110 C.3   504  SGN504      0.1035
     86  O3        30.8940   10.0000   12.9300 O.3   506  SUS506     -0.2468
     87  O4S       24.4960    8.9950   13.6470 O.2   506  SUS506     -0.3452
     88  O2S       24.7670   11.1090   17.7230 O.2   507  IDS507     -0.3452
     89  C4        38.4550    0.4040   14.3350 C.3   503  IDS503      0.1267
     90  C4        41.0760    2.5010   17.2330 C.3   502  SGN502      0.1176
     91  C2        36.5860    0.2770   11.1500 C.3   504  SGN504      0.1081
     92  O5        28.7450    6.4790   12.1730 O.3   506  SUS506     -0.3413
     93  O2S       35.4880    6.7550   12.5080 O.2   505  IDS505     -0.3452
     94  C2        41.1430    2.0250   19.7210 C.3   502  SGN502      0.1081
     95  O2        26.1690    9.8260   16.2500 O.3   507  IDS507     -0.2435
     96  C5        34.8220    0.3570   13.4380 C.3   504  SGN504      0.1158
     97  S         44.1920   -0.6780   22.2020 S.3   501  IDS501     -0.0004
     98  O1        28.5770    9.3910   14.4620 O.3   507  IDS507     -0.3400
     99  C1        30.1300    6.4740   11.7810 C.3   506  SUS506      0.1796
    100  C6        29.9540    2.9360   13.8640 C.2   505  IDS505      0.3367
    101  O1        41.3010    1.8130   15.9750 O.3   503  IDS503     -0.3401
    102  C5        28.1260   12.3670   13.7160 C.3   507  IDS507      0.1863
    103  S1        23.3680   15.2610   16.0470 S.3   508  SGN508      0.0767
    104  O5S       34.5930   -3.1540   15.0530 O.2   504  SGN504     -0.3452
    105  O62       36.4470    0.7880   16.6540 O.3   503  IDS503     -0.4788
    106  O5S       24.0690    7.7900   11.5620 O.2   506  SUS506     -0.3452
    107  C4        25.5190   16.8260   11.8410 C.3   508  SGN508      0.1111
    108  O6S       28.8020   19.8370   10.5380 O.2   508  SGN508     -0.3452
    109  O3S       37.5820   -0.7120    8.4240 O.3   504  SGN504     -0.0534
    110  O7S       33.1420    9.6440   13.7030 O.3   506  SUS506     -0.2682
    111  C1        46.5460    1.2520   21.0320 C.3   501  IDS501      0.1885
    112  O3S       35.2450    5.5760   10.2260 O.3   505  IDS505     -0.2682
    113  N         37.7290    0.8670   10.4360 N.3   504  SGN504     -0.1775
    114  N         23.6700   14.8460   14.4990 N.3   508  SGN508     -0.1775
    115  O61       45.9310    2.5790   17.2790 O.3   501  IDS501     -0.4788
    116  O2S       38.8820   -1.4240   10.3610 O.3   504  SGN504     -0.0534
    117  O1        33.1520    1.5860   12.0630 O.3   505  IDS505     -0.3401
    118  O2        33.9350    5.2050   12.0440 O.3   505  IDS505     -0.2435
    119  C6        45.7330    3.4480   18.1560 C.2   501  IDS501      0.3367
    120  O1S       39.2120    1.5200   21.8830 O.3   502  SGN502     -0.0534
    121  C5        28.4830    7.1700   13.4060 C.3   506  SUS506      0.1158
    122  O3        45.6550    3.6940   22.4530 O.3   501  IDS501     -0.3863
    123  O3S       24.0680   10.6700   15.4110 O.3   507  IDS507     -0.2682
    124  O6S       32.5180   -2.2430   15.9780 O.3   504  SGN504     -0.2682
    125  O2        40.2210    2.1050   12.4930 O.3   503  IDS503     -0.2435
    126  O3        31.7940    3.0800    9.9850 O.3   505  IDS505     -0.3863
    127  O4S       28.5560   20.7350   12.8050 O.2   508  SGN508     -0.3452
    128  C4        34.2970    0.6910   12.0380 C.3   504  SGN504      0.1176
    129  C2        26.8950   10.8180   15.5140 C.3   507  IDS507      0.1644
    130  S         24.8110   10.1230   16.5930 S.3   507  IDS507     -0.0004
    131  O5        39.1590    2.5640   15.2210 O.3   503  IDS503     -0.3314
    132  O6        33.3170   -1.5470   13.8260 O.3   504  SGN504     -0.2520
    133  C6        42.1780    4.6530   16.4940 C.3   502  SGN502      0.1035
    134  C5        26.8960   16.2690   12.2120 C.3   508  SGN508      0.1154
    135  O62       27.8680   13.2770   11.5220 O.3   507  IDS507     -0.4788
    136  N         32.1800    7.8220   11.5330 N.3   506  SUS506     -0.1775
    137  O5        32.3810    3.2190   13.5440 O.3   505  IDS505     -0.3314
    138  N         41.3900    0.9370   20.6790 N.3   502  SGN502     -0.1775
    139  O3        34.9740    1.5550    9.8910 O.3   504  SGN504     -0.3874
    140  C2        33.4620    3.9650   11.5040 C.3   505  IDS505      0.1644
    141  O2        44.2850    0.4790   21.3660 O.3   501  IDS501     -0.2435
    142  S2        28.8580   19.5060   12.0000 S.3   508  SGN508     -0.0008
    143  O5S       30.2280   19.0040   12.3490 O.3   508  SGN508     -0.2682
    144  O1S       24.6050   15.0760   16.8750 O.3   508  SGN508     -0.0534
    145  C3        30.4310    8.6510   13.0530 C.3   506  SUS506      0.1358
    146  H         27.8570   17.3200   10.6220 H     508  SGN508      0.0610
    147  H         28.9370   16.7900   11.9050 H     508  SGN508      0.0610
    148  H         42.1970    3.5390   20.8000 H     502  SGN502      0.0927
    149  H         26.8070    7.6500   14.6340 H     506  SUS506      0.0610
    150  H         26.7550    6.0430   13.8980 H     506  SUS506      0.0610
    151  H         30.2670    8.4170   10.9570 H     506  SUS506      0.0555
    152  H         37.7140   -0.9340   12.4730 H     504  SGN504      0.0927
    153  H         39.0130    0.8620   16.3450 H     503  IDS503      0.0742
    154  H         25.2190   13.5190   16.2660 H     507  IDS507      0.2100
    155  H         41.4570   -0.8610   14.5570 H     503  IDS503      0.2100
    156  H         32.1200    5.0970   10.3500 H     505  IDS505      0.0649
    157  H         34.3820    2.8970   13.0920 H     505  IDS505      0.0939
    158  H         31.0980    2.1870   12.3090 H     505  IDS505      0.0742
    159  H         46.6600    3.6320   20.0850 H     501  IDS501      0.0741
    160  H         48.3750    2.0070   21.0340 H     501  IDS501      0.2126
    161  H         26.2340   15.1840   15.2580 H     508  SGN508      0.0927
    162  H         40.0110   -0.1150   18.8740 H     502  SGN502      0.2100
    163  H         22.4680   15.9120   12.5650 H     508  SGN508      0.2100
    164  H         29.9980    4.1830   11.4140 H     505  IDS505      0.0656
    165  H         45.5020    1.1380   22.8940 H     501  IDS501      0.0698
    166  H         28.4090    9.0880   12.4490 H     506  SUS506      0.0651
    167  H         42.0250    0.8640   18.1820 H     502  SGN502      0.0638
    168  H         24.4920   14.9510   11.9530 H     508  SGN508      0.0638
    169  H         26.6010    9.5080   13.8700 H     507  IDS507      0.0939
    170  H         28.6910    3.6510   12.6360 H     505  IDS505      0.2951
    171  H         24.5450   16.7260   14.3930 H     508  SGN508      0.0554
    172  H         27.5260   13.7390   15.2320 H     507  IDS507      0.0656
    173  H         41.7040    1.1630   13.5570 H     503  IDS503      0.0698
    174  H         39.8490   -0.3740   12.9340 H     503  IDS503      0.0649
    175  H         40.9330    3.3340   14.6260 H     503  IDS503      0.0939
    176  H         35.7780    2.1960   11.6700 H     504  SGN504      0.0638
    177  H         24.5140   17.2310   10.1870 H     508  SGN508      0.2100
    178  H         44.2760    4.2690   20.3060 H     501  IDS501      0.0656
    179  H         25.2990   11.8870   14.5950 H     507  IDS507      0.0649
    180  H         43.1240    2.9600   17.4100 H     502  SGN502      0.0648
    181  H         43.7860    2.8460   22.2920 H     501  IDS501      0.0649
    182  H         32.8810    0.3880   14.3200 H     504  SGN504      0.0610
    183  H         34.1270   -0.3970   15.2950 H     504  SGN504      0.0610
    184  H         37.9900   -0.5160   14.6210 H     503  IDS503      0.0656
    185  H         40.1470    3.0320   17.2170 H     502  SGN502      0.0650
    186  H         36.2530   -0.5930   10.6230 H     504  SGN504      0.0554
    187  H         40.2080    2.5040   19.9220 H     502  SGN502      0.0554
    188  H         35.1600    1.2660   13.8900 H     504  SGN504      0.0648
    189  H         30.1580    6.1130   10.7740 H     506  SUS506      0.0927
    190  H         28.9420   12.1530   14.3740 H     507  IDS507      0.0742
    191  H         36.8810   -0.0070   16.8940 H     503  IDS503      0.2951
    192  H         25.4100   17.8140   12.2380 H     508  SGN508      0.0646
    193  H         46.8710    0.2330   21.0460 H     501  IDS501      0.0936
    194  H         37.3930    1.6190    9.8350 H     504  SGN504      0.1487
    195  H         24.0340   13.8940   14.4670 H     508  SGN508      0.1487
    196  H         46.1760    1.7100   17.5280 H     501  IDS501      0.2951
    197  H         29.0400    6.7160   14.1980 H     506  SUS506      0.0648
    198  H         46.5140    3.6550   22.0050 H     501  IDS501      0.2100
    199  H         31.7640    2.2510   10.4870 H     505  IDS505      0.2100
    200  H         33.9500   -0.2150   11.5860 H     504  SGN504      0.0650
    201  H         27.7060   11.1380   16.1340 H     507  IDS507      0.0698
    202  H         43.0290    5.2800   16.6620 H     502  SGN502      0.0610
    203  H         42.1960    4.2340   15.5100 H     502  SGN502      0.0610
    204  H         27.0030   15.2940   11.7840 H     508  SGN508      0.0648
    205  H         27.0690   12.7880   11.4910 H     507  IDS507      0.2951
    206  H         32.6470    8.4790   12.1580 H     506  SUS506      0.1487
    207  H         41.0180    0.0670   20.2990 H     502  SGN502      0.1487
    208  H         34.6680    0.7300    9.4830 H     504  SGN504      0.2100
    209  H         34.1270    3.6260   10.7370 H     505  IDS505      0.0698
    210  H         30.9290    8.1960   13.8830 H     506  SUS506      0.0664
@<TRIPOS>BOND
     1     1   136    1
     2     1     6    1
     3     1    33    1
     4     1    48    1
     5     2   134    1
     6     2    37    1
     7     2   146    1
     8     2   147    1
     9     3    94    1
    10     3    41    1
    11     3    56    1
    12     3   148    1
    13     4   121    1
    14     4    40    1
    15     4   149    1
    16     4   150    1
    17     5    65    2
    18     7    89    1
    19     7    11    1
    20     8    38    2
    21     9   136    1
    22     9    99    1
    23     9   145    1
    24     9   151    1
    25    10   130    2
    26    11    91    1
    27    11    42    1
    28    11   152    1
    29    12    97    2
    30    13    89    1
    31    13    66    1
    32    13   131    1
    33    13   153    1
    34    14    75    1
    35    14   154    1
    36    15    70    2
    37    16    66    2
    38    17    67    1
    39    17   155    1
    40    18    63    1
    41    18    36    1
    42    19   140    1
    43    19    50    1
    44    19   126    1
    45    19   156    1
    46    20    45    2
    47    21   140    1
    48    21   117    1
    49    21   137    1
    50    21   157    1
    51    22    70    2
    52    23    50    1
    53    23   100    1
    54    23   137    1
    55    23   158    1
    56    24   111    1
    57    24    29    1
    58    25    60    1
    59    25   102    1
    60    26    80    2
    61    27    50    1
    62    27    99    1
    63    28   119    2
    64    29    74    1
    65    29   119    1
    66    29   159    1
    67    30   103    1
    68    31   103    1
    69    32   111    1
    70    32   160    1
    71    34    97    2
    72    35   118    1
    73    35    57    2
    74    35    93    2
    75    35   112    1
    76    36    62    1
    77    36    82    1
    78    36   161    1
    79    37   142    1
    80    38   125    1
    81    38    55    2
    82    38    84    1
    83    39   100    2
    84    40    43    1
    85    41    74    1
    86    42    96    1
    87    43    87    2
    88    43   106    2
    89    43    49    1
    90    44    58    1
    91    44   162    1
    92    45    71    1
    93    45    54    2
    94    45    69    1
    95    46    97    1
    96    47    59    1
    97    47   163    1
    98    50   164    1
    99    51    83    1
   100    52   111    1
   101    52    79    1
   102    52   141    1
   103    52   165    1
   104    53   145    1
   105    53   121    1
   106    53    98    1
   107    53   166    1
   108    56    77    1
   109    58    94    1
   110    58    90    1
   111    58   167    1
   112    59    62    1
   113    59   107    1
   114    59   168    1
   115    60   129    1
   116    60    98    1
   117    60   169    1
   118    61   100    1
   119    61   170    1
   120    62   114    1
   121    62   171    1
   122    63    75    1
   123    63   102    1
   124    63   172    1
   125    64    68    1
   126    64    67    1
   127    64   125    1
   128    64   173    1
   129    65   102    1
   130    65   135    1
   131    66   105    1
   132    67    89    1
   133    67   174    1
   134    68   101    1
   135    68   131    1
   136    68   175    1
   137    70    86    1
   138    70   110    1
   139    71   133    1
   140    72    91    1
   141    72   128    1
   142    72   139    1
   143    72   176    1
   144    73   107    1
   145    73   177    1
   146    74    79    1
   147    74   178    1
   148    75   129    1
   149    75   179    1
   150    76   113    1
   151    76    81    1
   152    76   116    1
   153    76   109    1
   154    77    90    1
   155    77   133    1
   156    77   180    1
   157    78    83    1
   158    79   122    1
   159    79   181    1
   160    80   132    1
   161    80   104    2
   162    80   124    1
   163    82   134    1
   164    83   138    1
   165    83   120    1
   166    85    96    1
   167    85   132    1
   168    85   182    1
   169    85   183    1
   170    86   145    1
   171    88   130    2
   172    89   184    1
   173    90   101    1
   174    90   185    1
   175    91   113    1
   176    91   186    1
   177    92    99    1
   178    92   121    1
   179    94   138    1
   180    94   187    1
   181    95   129    1
   182    95   130    1
   183    96   128    1
   184    96   188    1
   185    97   141    1
   186    99   189    1
   187   102   190    1
   188   103   114    1
   189   103   144    1
   190   105   191    1
   191   107   134    1
   192   107   192    1
   193   108   142    2
   194   111   193    1
   195   113   194    1
   196   114   195    1
   197   115   119    1
   198   115   196    1
   199   117   128    1
   200   118   140    1
   201   121   197    1
   202   122   198    1
   203   123   130    1
   204   126   199    1
   205   127   142    2
   206   128   200    1
   207   129   201    1
   208   133   202    1
   209   133   203    1
   210   134   204    1
   211   135   205    1
   212   136   206    1
   213   138   207    1
   214   139   208    1
   215   140   209    1
   216   142   143    1
   217   145   210    1
