@<TRIPOS>MOLECULE
3KCG_LIGAND_1_uncharged.pdb
 159 163 0 0 0
SMALL
GASTEIGER

@<TRIPOS>ATOM
      1  C53       20.1720   11.0440    1.3820 C.3   433  NTP433      0.1076
      2  S35       28.3460    6.2830   -7.5530 S.O2  433  NTP433      0.2076
      3  O42       21.9070    9.7650   -2.2560 O.3   433  NTP433     -0.3314
      4  C50       19.6100    9.5570   -0.5750 C.3   433  NTP433      0.1212
      5  O38       29.7980    6.6580   -7.5210 O.3   433  NTP433     -0.2311
      6  O27       24.1240    7.0220  -12.2570 O.3   433  NTP433     -0.3744
      7  C51       19.1390   10.0950    0.7690 C.3   433  NTP433      0.1161
      8  O3M       24.3710    9.7010   -3.8080 O.3   433  NTP433     -0.3395
      9  C5N       16.2160    9.3100    2.2760 C.3   433  NTP433      0.0395
     10  C30       25.6530    9.4890   -6.9380 C.3   433  NTP433      0.1212
     11  O5J       14.9440   10.7540   -2.0800 O.2   433  NTP433     -0.1181
     12  O3G       25.6940   12.1550   -4.2710 O.3   433  NTP433     -0.2046
     13  S1G       25.9570    5.0500  -15.4770 S.O   433  NTP433      0.1405
     14  C1D       29.0250    6.2970  -15.9800 C.3   433  NTP433      0.0370
     15  O54       20.3070   12.2380    0.6060 O.3   433  NTP433     -0.2131
     16  C23       26.8880   11.0070  -11.8600 C.2   433  NTP433      0.3367
     17  O5I       16.0770    9.6850   -3.9690 O.2   433  NTP433     -0.1181
     18  O5D       19.1610    6.5290   -4.1110 O.2   433  NTP433     -0.1181
     19  O1C       28.3120    7.3200  -16.6820 O.3   433  NTP433     -0.3743
     20  C43       22.0340    8.7430   -4.4340 C.2   433  NTP433      0.3367
     21  O3I       26.5590   14.0000   -3.0170 O.2   433  NTP433     -0.1181
     22  O14       25.1030    9.4730  -15.1070 O.3   433  NTP433     -0.3403
     23  O19       25.0040   13.9640  -17.3640 O.2   433  NTP433     -0.1181
     24  C1E       26.2530    7.3830  -15.3770 C.3   433  NTP433      0.1671
     25  O3J       28.0370   12.1920   -3.7400 O.2   433  NTP433     -0.1181
     26  O57       20.6440   13.7650    2.4250 O.2   433  NTP433     -0.1181
     27  O5M       16.6410    8.8610    0.9860 O.3   433  NTP433     -0.3519
     28  O3C       23.9030   13.2810   -6.1530 O.2   433  NTP433     -0.1181
     29  O44       22.2760    7.7800   -5.1890 O.2   433  NTP433     -0.2480
     30  O4G       20.8160    8.7980   -0.4060 O.3   433  NTP433     -0.3399
     31  O36       27.8960    6.1570   -8.9780 O.2   433  NTP433     -0.1181
     32  C46       24.3610    9.0990   -1.4620 C.3   433  NTP433      0.1206
     33  O3K       26.3610   11.7870   -2.0000 O.3   433  NTP433     -0.2311
     34  O25       28.0830   11.1570  -12.1800 O.3   433  NTP433     -0.4788
     35  O2D       24.7440    9.2350   -8.0230 O.3   433  NTP433     -0.3400
     36  O4D       24.0450    8.9120    3.1580 O.2   433  NTP433     -0.1181
     37  O1I       24.4870    5.3080  -15.6420 O.2   433  NTP433     -0.1366
     38  S5H       15.3240    9.4410   -2.6940 S.O2  433  NTP433      0.2080
     39  O16       24.8880   12.2970  -15.6390 O.3   433  NTP433     -0.2131
     40  O5E       17.8450    6.1630   -2.0840 O.2   433  NTP433     -0.1181
     41  C41       22.4330    8.6310   -2.9600 C.3   433  NTP433      0.1863
     42  C33       26.1910    7.0830   -6.6090 C.3   433  NTP433      0.1076
     43  C1B       27.5440    8.1090  -15.7620 C.3   433  NTP433      0.1200
     44  S55       21.1120   13.3280    1.0690 S.O2  433  NTP433      0.2076
     45  O24       25.9920   11.8600  -12.0640 O.2   433  NTP433     -0.2480
     46  O52       17.9010   10.8140    0.6390 O.3   433  NTP433     -0.3403
     47  C20       25.5650    8.9310  -12.1160 C.3   433  NTP433      0.1269
     48  C1K       25.4700    8.2710  -14.4090 C.3   433  NTP433      0.1910
     49  C29       24.4170    8.0480  -10.0960 C.3   433  NTP433      0.1375
     50  O45       21.4880    9.8050   -4.8110 O.3   433  NTP433     -0.4788
     51  C3F       26.0800   10.9530   -4.9470 C.3   433  NTP433      0.1710
     52  C21       26.4770    9.7020  -11.1750 C.3   433  NTP433      0.1863
     53  O4A       23.6520    9.2730    0.8370 O.3   433  NTP433     -0.2047
     54  O1F       26.5620    6.1310  -14.7590 O.3   433  NTP433     -0.2190
     55  C59       18.5120    8.6860   -1.2000 C.3   433  NTP433      0.1514
     56  C4F       21.9670    9.5420   -0.8390 C.3   433  NTP433      0.1917
     57  C15       25.7510   11.4250  -16.3750 C.3   433  NTP433      0.1076
     58  C3L       25.7850    9.7490   -4.0510 C.3   433  NTP433      0.1912
     59  C26       25.0830    7.6730  -11.4110 C.3   433  NTP433      0.1182
     60  C11       28.2840   10.8800  -17.8960 C.3   433  NTP433      0.0370
     61  O37       28.1400    4.9770   -6.8460 O.2   433  NTP433     -0.1181
     62  O2A       24.0340    6.8350   -9.4280 O.3   433  NTP433     -0.3721
     63  O3A       25.6140   11.8980   -7.1200 O.3   433  NTP433     -0.2069
     64  O10       28.3680   10.1530  -16.6670 O.3   433  NTP433     -0.3745
     65  S17       24.1460   13.3130  -16.3210 S.O2  433  NTP433      0.2076
     66  C31       25.5770    8.3260   -5.9590 C.3   433  NTP433      0.1161
     67  C48       26.2830    8.9900   -0.1020 C.3   433  NTP433      0.0370
     68  O5A       18.9030    8.2850   -2.5150 O.3   433  NTP433     -0.2069
     69  S3B       24.4960   12.7420   -7.4220 S.O2  433  NTP433      0.2079
     70  C40       23.9490    8.6960   -2.8710 C.3   433  NTP433      0.1270
     71  O18       22.9450   12.6920  -16.9700 O.2   433  NTP433     -0.1181
     72  O5C       20.2790    6.4080   -1.9410 O.3   433  NTP433     -0.2311
     73  S3H       26.6500   12.5250   -3.2730 S.O2  433  NTP433      0.2080
     74  O4E       24.3740    7.0970    1.5490 O.2   433  NTP433     -0.1181
     75  C28       23.9460    5.6580  -11.8670 C.3   433  NTP433      0.0370
     76  O32       26.2540    8.5640   -4.7130 O.3   433  NTP433     -0.3403
     77  S4B       23.5430    8.3010    1.8830 S.O2  433  NTP433      0.2080
     78  O5G       16.1510    8.6970   -1.7900 O.3   433  NTP433     -0.2046
     79  C13       26.2410   10.2370  -15.5430 C.3   433  NTP433      0.1159
     80  C2B       23.0530    7.0920   -8.4200 C.3   433  NTP433      0.0371
     81  S5B       19.0430    6.8660   -2.6540 S.O2  433  NTP433      0.2079
     82  C5L       16.8450    9.9900    0.1230 C.3   433  NTP433      0.1903
     83  C49       23.2450    8.7960   -0.4510 C.3   433  NTP433      0.1687
     84  O1J       26.1510    3.7740  -14.7140 O.3   433  NTP433     -0.2454
     85  O56       22.5450   12.8950    1.1560 O.2   433  NTP433     -0.1181
     86  O3E       23.4480   11.9670   -8.1610 O.3   433  NTP433     -0.2311
     87  O1L       26.3160    8.5880  -13.2910 O.3   433  NTP433     -0.3395
     88  C2C       25.4000    8.8300   -9.2360 C.3   433  NTP433      0.1893
     89  O34       27.5760    7.2970   -6.8960 O.3   433  NTP433     -0.2131
     90  O4C       22.1130    7.8850    2.0630 O.3   433  NTP433     -0.2311
     91  O5K       14.0870    8.6490   -2.9930 O.3   433  NTP433     -0.2311
     92  O3D       24.9770   13.8810   -8.2710 O.2   433  NTP433     -0.1181
     93  O58       20.9960   14.4740    0.1090 O.3   433  NTP433     -0.2311
     94  O22       25.7970   10.0120   -9.9480 O.3   433  NTP433     -0.3315
     95  O47       25.5280    8.3350   -1.1260 O.3   433  NTP433     -0.3743
     96  C12       27.1590    9.4150  -16.4370 C.3   433  NTP433      0.1154
     97  C39       25.2870   10.8090   -6.2500 C.3   433  NTP433      0.1514
     98  C5F       17.2180    9.5010   -1.2760 C.3   433  NTP433      0.1710
     99  O1A       23.7020   14.3480  -15.3290 O.3   433  NTP433     -0.2311
    100  H         21.1190   10.5470    1.4250 H     433  NTP433      0.0611
    101  H         19.8410   11.3150    2.3630 H     433  NTP433      0.0611
    102  H         19.8140   10.3780   -1.2300 H     433  NTP433      0.0651
    103  H         29.9240    7.5030   -7.9800 H     433  NTP433      0.2469
    104  H         19.0030    9.2450    1.4040 H     433  NTP433      0.0648
    105  H         16.0650    8.4660    2.9160 H     433  NTP433      0.0525
    106  H         15.2990    9.8530    2.1800 H     433  NTP433      0.0525
    107  H         16.9660    9.9470    2.6970 H     433  NTP433      0.0525
    108  H         26.6540    9.5750   -7.3050 H     433  NTP433      0.0651
    109  H         29.5930    5.7160  -16.6760 H     433  NTP433      0.0524
    110  H         28.3300    5.6630  -15.4700 H     433  NTP433      0.0524
    111  H         29.6850    6.7470  -15.2680 H     433  NTP433      0.0524
    112  H         25.6650    7.1900  -16.2500 H     433  NTP433      0.0699
    113  H         24.5550   10.1510   -1.4270 H     433  NTP433      0.0651
    114  H         25.4650   12.0020   -1.6980 H     433  NTP433      0.2469
    115  H         28.7050   10.4800  -11.9990 H     433  NTP433      0.2951
    116  H         22.0600    7.7180   -2.5440 H     433  NTP433      0.0742
    117  H         25.6720    6.8700   -7.5200 H     433  NTP433      0.0611
    118  H         26.1020    6.2600   -5.9310 H     433  NTP433      0.0611
    119  H         28.1340    8.2820  -14.8860 H     433  NTP433      0.0651
    120  H         24.7160    9.5200  -12.3950 H     433  NTP433      0.0656
    121  H         24.5900    7.7760  -14.0540 H     433  NTP433      0.0938
    122  H         23.5550    8.6570  -10.2700 H     433  NTP433      0.0674
    123  H         21.3310   10.4950   -4.1970 H     433  NTP433      0.2951
    124  H         27.1260   10.9980   -5.1680 H     433  NTP433      0.0700
    125  H         27.3340    9.1040  -10.9480 H     433  NTP433      0.0742
    126  H         18.3590    7.8130   -0.6010 H     433  NTP433      0.0677
    127  H         21.9750   10.4960   -0.3540 H     433  NTP433      0.0939
    128  H         26.6010   11.9840  -16.7060 H     433  NTP433      0.0611
    129  H         25.1890   11.0340  -17.1970 H     433  NTP433      0.0611
    130  H         26.2850    9.8260   -3.1080 H     433  NTP433      0.0938
    131  H         25.9100    7.0230  -11.2130 H     433  NTP433      0.0651
    132  H         29.1920   11.4240  -18.0520 H     433  NTP433      0.0524
    133  H         27.4620   11.5640  -17.8500 H     433  NTP433      0.0524
    134  H         28.1340   10.1960  -18.7050 H     433  NTP433      0.0524
    135  H         24.5400    8.1930   -5.7330 H     433  NTP433      0.0648
    136  H         27.1470    8.4050    0.1330 H     433  NTP433      0.0524
    137  H         25.6770    9.0990    0.7730 H     433  NTP433      0.0524
    138  H         26.5890    9.9560   -0.4470 H     433  NTP433      0.0524
    139  H         24.3950    7.7490   -3.0920 H     433  NTP433      0.0656
    140  H         20.3700    5.4470   -2.0370 H     433  NTP433      0.2469
    141  H         23.2280    5.1940  -12.5110 H     433  NTP433      0.0524
    142  H         23.5970    5.6190  -10.8560 H     433  NTP433      0.0524
    143  H         24.8800    5.1410  -11.9420 H     433  NTP433      0.0524
    144  H         26.7770   10.5480  -14.6710 H     433  NTP433      0.0648
    145  H         22.7860    6.1740   -7.9390 H     433  NTP433      0.0524
    146  H         22.1840    7.5240   -8.8700 H     433  NTP433      0.0524
    147  H         23.4550    7.7700   -7.6960 H     433  NTP433      0.0524
    148  H         15.9430   10.5630    0.0740 H     433  NTP433      0.0938
    149  H         23.0630    7.7420   -0.4380 H     433  NTP433      0.0699
    150  H         27.1000    3.6030  -14.6050 H     433  NTP433      0.2453
    151  H         23.1400   11.2320   -7.6090 H     433  NTP433      0.2469
    152  H         26.2510    8.2210   -9.0130 H     433  NTP433      0.0938
    153  H         21.5750    8.6630    2.2790 H     433  NTP433      0.2469
    154  H         13.5240    9.1480   -3.6050 H     433  NTP433      0.2469
    155  H         20.0690   14.7550    0.0520 H     433  NTP433      0.2469
    156  H         26.6420    9.2100  -17.3510 H     433  NTP433      0.0649
    157  H         24.2400   10.8160   -6.0310 H     433  NTP433      0.0677
    158  H         17.3730   10.3350   -1.9290 H     433  NTP433      0.0700
    159  H         24.4800   14.7490  -14.9100 H     433  NTP433      0.2469
@<TRIPOS>BOND
     1     1     7    1
     2     1    15    1
     3     1   100    1
     4     1   101    1
     5     2    89    1
     6     2    31    2
     7     2    61    2
     8     2     5    1
     9     3    41    1
    10     3    56    1
    11     4    30    1
    12     4     7    1
    13     4    55    1
    14     4   102    1
    15     5   103    1
    16     6    59    1
    17     6    75    1
    18     7    46    1
    19     7   104    1
    20     8    58    1
    21     8    70    1
    22     9    27    1
    23     9   105    1
    24     9   106    1
    25     9   107    1
    26    10    35    1
    27    10    66    1
    28    10    97    1
    29    10   108    1
    30    11    38    2
    31    12    51    1
    32    12    73    1
    33    14    19    1
    34    14   109    1
    35    14   110    1
    36    14   111    1
    37    15    44    1
    38    16    52    1
    39    16    45    2
    40    16    34    1
    41    17    38    2
    42    18    81    2
    43    19    43    1
    44    20    41    1
    45    20    29    2
    46    20    50    1
    47    21    73    2
    48    22    79    1
    49    22    48    1
    50    23    65    2
    51    24    43    1
    52    24    54    1
    53    24    48    1
    54    24   112    1
    55    25    73    2
    56    26    44    2
    57    27    82    1
    58    28    69    2
    59    30    56    1
    60    32    70    1
    61    32    95    1
    62    32    83    1
    63    32   113    1
    64    33    73    1
    65    33   114    1
    66    34   115    1
    67    35    88    1
    68    36    77    2
    69    38    78    1
    70    38    91    1
    71    39    57    1
    72    39    65    1
    73    40    81    2
    74    41    70    1
    75    41   116    1
    76    42    66    1
    77    42    89    1
    78    42   117    1
    79    42   118    1
    80    43    96    1
    81    43   119    1
    82    44    85    2
    83    44    93    1
    84    46    82    1
    85    47    87    1
    86    47    52    1
    87    47    59    1
    88    47   120    1
    89    48    87    1
    90    48   121    1
    91    49    59    1
    92    49    62    1
    93    49    88    1
    94    49   122    1
    95    50   123    1
    96    51    97    1
    97    51    58    1
    98    51   124    1
    99    52    94    1
   100    52   125    1
   101    53    83    1
   102    53    77    1
   103    55    68    1
   104    55    98    1
   105    55   126    1
   106    56    83    1
   107    56   127    1
   108    57    79    1
   109    57   128    1
   110    57   129    1
   111    58    76    1
   112    58   130    1
   113    59   131    1
   114    60    64    1
   115    60   132    1
   116    60   133    1
   117    60   134    1
   118    62    80    1
   119    63    97    1
   120    63    69    1
   121    64    96    1
   122    65    71    2
   123    65    99    1
   124    66    76    1
   125    66   135    1
   126    67    95    1
   127    67   136    1
   128    67   137    1
   129    67   138    1
   130    68    81    1
   131    69    92    2
   132    69    86    1
   133    70   139    1
   134    72    81    1
   135    72   140    1
   136    74    77    2
   137    75   141    1
   138    75   142    1
   139    75   143    1
   140    77    90    1
   141    78    98    1
   142    79    96    1
   143    79   144    1
   144    80   145    1
   145    80   146    1
   146    80   147    1
   147    82    98    1
   148    82   148    1
   149    83   149    1
   150    84   150    1
   151    86   151    1
   152    88    94    1
   153    88   152    1
   154    90   153    1
   155    91   154    1
   156    93   155    1
   157    96   156    1
   158    97   157    1
   159    98   158    1
   160    99   159    1
   161    37    13    2
   162    13    54    1
   163    13    84    1
