@<TRIPOS>MOLECULE
3KCG_LIGAND_1.pdb
 160 164 0 0 0
SMALL
GASTEIGER

@<TRIPOS>ATOM
      1  C53       20.1720   11.0440    1.3820 C.3   433  NTP433      0.1076
      2  S35       28.3460    6.2830   -7.5530 S.O2  433  NTP433      0.2076
      3  O42       21.9070    9.7650   -2.2560 O.3   433  NTP433     -0.3314
      4  C50       19.6100    9.5570   -0.5750 C.3   433  NTP433      0.1212
      5  O38       29.7980    6.6580   -7.5210 O.3   433  NTP433     -0.2311
      6  O27       24.1240    7.0220  -12.2570 O.3   433  NTP433     -0.3744
      7  C51       19.1390   10.0950    0.7690 C.3   433  NTP433      0.1161
      8  O1H       26.5930    4.9240  -16.8290 O.2   433  NTP433     -0.1181
      9  O3M       24.3710    9.7010   -3.8080 O.3   433  NTP433     -0.3395
     10  C5N       16.2160    9.3100    2.2760 C.3   433  NTP433      0.0395
     11  C30       25.6530    9.4890   -6.9380 C.3   433  NTP433      0.1212
     12  O5J       14.9440   10.7540   -2.0800 O.2   433  NTP433     -0.1181
     13  O3G       25.6940   12.1550   -4.2710 O.3   433  NTP433     -0.2046
     14  S1G       25.9570    5.0500  -15.4770 S.O2  433  NTP433      0.2080
     15  C1D       29.0250    6.2970  -15.9800 C.3   433  NTP433      0.0370
     16  O54       20.3070   12.2380    0.6060 O.3   433  NTP433     -0.2131
     17  C23       26.8880   11.0070  -11.8600 C.2   433  NTP433      0.3367
     18  O5I       16.0770    9.6850   -3.9690 O.2   433  NTP433     -0.1181
     19  O5D       19.1610    6.5290   -4.1110 O.2   433  NTP433     -0.1181
     20  O1C       28.3120    7.3200  -16.6820 O.3   433  NTP433     -0.3743
     21  C43       22.0340    8.7430   -4.4340 C.2   433  NTP433      0.3367
     22  O3I       26.5590   14.0000   -3.0170 O.2   433  NTP433     -0.1181
     23  O14       25.1030    9.4730  -15.1070 O.3   433  NTP433     -0.3403
     24  O19       25.0040   13.9640  -17.3640 O.2   433  NTP433     -0.1181
     25  C1E       26.2530    7.3830  -15.3770 C.3   433  NTP433      0.1686
     26  O3J       28.0370   12.1920   -3.7400 O.2   433  NTP433     -0.1181
     27  O57       20.6440   13.7650    2.4250 O.2   433  NTP433     -0.1181
     28  O5M       16.6410    8.8610    0.9860 O.3   433  NTP433     -0.3519
     29  O3C       23.9030   13.2810   -6.1530 O.2   433  NTP433     -0.1181
     30  O44       22.2760    7.7800   -5.1890 O.2   433  NTP433     -0.2480
     31  O4G       20.8160    8.7980   -0.4060 O.3   433  NTP433     -0.3399
     32  O36       27.8960    6.1570   -8.9780 O.2   433  NTP433     -0.1181
     33  C46       24.3610    9.0990   -1.4620 C.3   433  NTP433      0.1206
     34  O3K       26.3610   11.7870   -2.0000 O.3   433  NTP433     -0.2311
     35  O25       28.0830   11.1570  -12.1800 O.3   433  NTP433     -0.4788
     36  O2D       24.7440    9.2350   -8.0230 O.3   433  NTP433     -0.3400
     37  O4D       24.0450    8.9120    3.1580 O.2   433  NTP433     -0.1181
     38  O1I       24.4870    5.3080  -15.6420 O.2   433  NTP433     -0.1181
     39  S5H       15.3240    9.4410   -2.6940 S.O2  433  NTP433      0.2080
     40  O16       24.8880   12.2970  -15.6390 O.3   433  NTP433     -0.2131
     41  O5E       17.8450    6.1630   -2.0840 O.2   433  NTP433     -0.1181
     42  C41       22.4330    8.6310   -2.9600 C.3   433  NTP433      0.1863
     43  C33       26.1910    7.0830   -6.6090 C.3   433  NTP433      0.1076
     44  C1B       27.5440    8.1090  -15.7620 C.3   433  NTP433      0.1200
     45  S55       21.1120   13.3280    1.0690 S.O2  433  NTP433      0.2076
     46  O24       25.9920   11.8600  -12.0640 O.2   433  NTP433     -0.2480
     47  O52       17.9010   10.8140    0.6390 O.3   433  NTP433     -0.3403
     48  C20       25.5650    8.9310  -12.1160 C.3   433  NTP433      0.1269
     49  C1K       25.4700    8.2710  -14.4090 C.3   433  NTP433      0.1911
     50  C29       24.4170    8.0480  -10.0960 C.3   433  NTP433      0.1375
     51  O45       21.4880    9.8050   -4.8110 O.3   433  NTP433     -0.4788
     52  C3F       26.0800   10.9530   -4.9470 C.3   433  NTP433      0.1710
     53  C21       26.4770    9.7020  -11.1750 C.3   433  NTP433      0.1863
     54  O4A       23.6520    9.2730    0.8370 O.3   433  NTP433     -0.2047
     55  O1F       26.5620    6.1310  -14.7590 O.3   433  NTP433     -0.2047
     56  C59       18.5120    8.6860   -1.2000 C.3   433  NTP433      0.1514
     57  C4F       21.9670    9.5420   -0.8390 C.3   433  NTP433      0.1917
     58  C15       25.7510   11.4250  -16.3750 C.3   433  NTP433      0.1076
     59  C3L       25.7850    9.7490   -4.0510 C.3   433  NTP433      0.1912
     60  C26       25.0830    7.6730  -11.4110 C.3   433  NTP433      0.1182
     61  C11       28.2840   10.8800  -17.8960 C.3   433  NTP433      0.0370
     62  O37       28.1400    4.9770   -6.8460 O.2   433  NTP433     -0.1181
     63  O2A       24.0340    6.8350   -9.4280 O.3   433  NTP433     -0.3721
     64  O3A       25.6140   11.8980   -7.1200 O.3   433  NTP433     -0.2069
     65  O10       28.3680   10.1530  -16.6670 O.3   433  NTP433     -0.3745
     66  S17       24.1460   13.3130  -16.3210 S.O2  433  NTP433      0.2076
     67  C31       25.5770    8.3260   -5.9590 C.3   433  NTP433      0.1161
     68  C48       26.2830    8.9900   -0.1020 C.3   433  NTP433      0.0370
     69  O5A       18.9030    8.2850   -2.5150 O.3   433  NTP433     -0.2069
     70  S3B       24.4960   12.7420   -7.4220 S.O2  433  NTP433      0.2079
     71  C40       23.9490    8.6960   -2.8710 C.3   433  NTP433      0.1270
     72  O18       22.9450   12.6920  -16.9700 O.2   433  NTP433     -0.1181
     73  O5C       20.2790    6.4080   -1.9410 O.3   433  NTP433     -0.2311
     74  S3H       26.6500   12.5250   -3.2730 S.O2  433  NTP433      0.2080
     75  O4E       24.3740    7.0970    1.5490 O.2   433  NTP433     -0.1181
     76  C28       23.9460    5.6580  -11.8670 C.3   433  NTP433      0.0370
     77  O32       26.2540    8.5640   -4.7130 O.3   433  NTP433     -0.3403
     78  S4B       23.5430    8.3010    1.8830 S.O2  433  NTP433      0.2080
     79  O5G       16.1510    8.6970   -1.7900 O.3   433  NTP433     -0.2046
     80  C13       26.2410   10.2370  -15.5430 C.3   433  NTP433      0.1159
     81  C2B       23.0530    7.0920   -8.4200 C.3   433  NTP433      0.0371
     82  S5B       19.0430    6.8660   -2.6540 S.O2  433  NTP433      0.2079
     83  C5L       16.8450    9.9900    0.1230 C.3   433  NTP433      0.1903
     84  C49       23.2450    8.7960   -0.4510 C.3   433  NTP433      0.1687
     85  O1J       26.1510    3.7740  -14.7140 O.3   433  NTP433     -0.2311
     86  O56       22.5450   12.8950    1.1560 O.2   433  NTP433     -0.1181
     87  O3E       23.4480   11.9670   -8.1610 O.3   433  NTP433     -0.2311
     88  O1L       26.3160    8.5880  -13.2910 O.3   433  NTP433     -0.3395
     89  C2C       25.4000    8.8300   -9.2360 C.3   433  NTP433      0.1893
     90  O34       27.5760    7.2970   -6.8960 O.3   433  NTP433     -0.2131
     91  O4C       22.1130    7.8850    2.0630 O.3   433  NTP433     -0.2311
     92  O5K       14.0870    8.6490   -2.9930 O.3   433  NTP433     -0.2311
     93  O3D       24.9770   13.8810   -8.2710 O.2   433  NTP433     -0.1181
     94  O58       20.9960   14.4740    0.1090 O.3   433  NTP433     -0.2311
     95  O22       25.7970   10.0120   -9.9480 O.3   433  NTP433     -0.3315
     96  O47       25.5280    8.3350   -1.1260 O.3   433  NTP433     -0.3743
     97  C12       27.1590    9.4150  -16.4370 C.3   433  NTP433      0.1154
     98  C39       25.2870   10.8090   -6.2500 C.3   433  NTP433      0.1514
     99  C5F       17.2180    9.5010   -1.2760 C.3   433  NTP433      0.1710
    100  O1A       23.7020   14.3480  -15.3290 O.3   433  NTP433     -0.2311
    101 H          21.1189   10.5475    1.4250 H     433  NTP433      0.0611
    102 H          19.8411   11.3147    2.3629 H     433  NTP433      0.0611
    103 H          19.8137   10.3779   -1.2304 H     433  NTP433      0.0651
    104 H          29.9238    7.5033   -7.9799 H     433  NTP433      0.2469
    105 H          19.0026    9.2448    1.4042 H     433  NTP433      0.0648
    106 H          16.0652    8.4656    2.9157 H     433  NTP433      0.0525
    107 H          15.2992    9.8533    2.1804 H     433  NTP433      0.0525
    108 H          16.9657    9.9469    2.6968 H     433  NTP433      0.0525
    109 H          26.6543    9.5755   -7.3051 H     433  NTP433      0.0651
    110 H          29.5931    5.7163  -16.6763 H     433  NTP433      0.0524
    111 H          28.3297    5.6631  -15.4705 H     433  NTP433      0.0524
    112 H          29.6853    6.7467  -15.2682 H     433  NTP433      0.0524
    113 H          25.6653    7.1903  -16.2501 H     433  NTP433      0.0699
    114 H          24.5554   10.1506   -1.4269 H     433  NTP433      0.0651
    115 H          25.4647   12.0020   -1.6980 H     433  NTP433      0.2469
    116 H          28.7049   10.4799  -11.9993 H     433  NTP433      0.2951
    117 H          22.0603    7.7184   -2.5438 H     433  NTP433      0.0742
    118 H          25.6719    6.8698   -7.5201 H     433  NTP433      0.0611
    119 H          26.1024    6.2598   -5.9312 H     433  NTP433      0.0611
    120 H          28.1339    8.2822  -14.8863 H     433  NTP433      0.0651
    121 H          24.7162    9.5200  -12.3945 H     433  NTP433      0.0656
    122 H          24.5903    7.7757  -14.0544 H     433  NTP433      0.0938
    123 H          23.5547    8.6571  -10.2704 H     433  NTP433      0.0674
    124 H          21.3315   10.4950   -4.1967 H     433  NTP433      0.2951
    125 H          27.1259   10.9976   -5.1683 H     433  NTP433      0.0700
    126 H          27.3345    9.1035  -10.9485 H     433  NTP433      0.0742
    127 H          18.3586    7.8129   -0.6007 H     433  NTP433      0.0677
    128 H          21.9751   10.4958   -0.3541 H     433  NTP433      0.0939
    129 H          26.6008   11.9844  -16.7064 H     433  NTP433      0.0611
    130 H          25.1893   11.0335  -17.1973 H     433  NTP433      0.0611
    131 H          26.2852    9.8257   -3.1082 H     433  NTP433      0.0938
    132 H          25.9098    7.0232  -11.2134 H     433  NTP433      0.0651
    133 H          29.1923   11.4237  -18.0516 H     433  NTP433      0.0524
    134 H          27.4623   11.5639  -17.8504 H     433  NTP433      0.0524
    135 H          28.1345   10.1963  -18.7054 H     433  NTP433      0.0524
    136 H          24.5397    8.1934   -5.7326 H     433  NTP433      0.0648
    137 H          27.1474    8.4049    0.1334 H     433  NTP433      0.0524
    138 H          25.6772    9.0993    0.7732 H     433  NTP433      0.0524
    139 H          26.5890    9.9556   -0.4468 H     433  NTP433      0.0524
    140 H          24.3945    7.7486   -3.0923 H     433  NTP433      0.0656
    141 H          20.3705    5.4471   -2.0372 H     433  NTP433      0.2469
    142 H          23.2281    5.1938  -12.5105 H     433  NTP433      0.0524
    143 H          23.5971    5.6187  -10.8563 H     433  NTP433      0.0524
    144 H          24.8796    5.1407  -11.9424 H     433  NTP433      0.0524
    145 H          26.7768   10.5481  -14.6706 H     433  NTP433      0.0648
    146 H          22.7863    6.1739   -7.9395 H     433  NTP433      0.0524
    147 H          22.1840    7.5245   -8.8701 H     433  NTP433      0.0524
    148 H          23.4546    7.7699   -7.6961 H     433  NTP433      0.0524
    149 H          15.9429   10.5633    0.0744 H     433  NTP433      0.0938
    150 H          23.0634    7.7416   -0.4378 H     433  NTP433      0.0699
    151 H          27.0997    3.6034  -14.6051 H     433  NTP433      0.2469
    152 H          23.1399   11.2317   -7.6085 H     433  NTP433      0.2469
    153 H          26.2508    8.2207   -9.0126 H     433  NTP433      0.0938
    154 H          21.5748    8.6626    2.2790 H     433  NTP433      0.2469
    155 H          13.5235    9.1482   -3.6047 H     433  NTP433      0.2469
    156 H          20.0694   14.7552    0.0517 H     433  NTP433      0.2469
    157 H          26.6418    9.2105  -17.3511 H     433  NTP433      0.0649
    158 H          24.2397   10.8159   -6.0309 H     433  NTP433      0.0677
    159 H          17.3735   10.3345   -1.9287 H     433  NTP433      0.0700
    160 H          24.4796   14.7488  -14.9100 H     433  NTP433      0.2469
@<TRIPOS>BOND
     1     1     7    1
     2     1    16    1
     3     2    90    1
     4     2    32    2
     5     2    62    2
     6     2     5    1
     7     3    42    1
     8     3    57    1
     9     4    31    1
    10     4     7    1
    11     4    56    1
    12     6    60    1
    13     6    76    1
    14     7    47    1
    15     8    14    2
    16     9    59    1
    17     9    71    1
    18    10    28    1
    19    11    36    1
    20    11    67    1
    21    11    98    1
    22    12    39    2
    23    13    52    1
    24    13    74    1
    25    14    55    1
    26    14    38    2
    27    14    85    1
    28    15    20    1
    29    16    45    1
    30    17    53    1
    31    17    46    2
    32    17    35    1
    33    18    39    2
    34    19    82    2
    35    20    44    1
    36    21    42    1
    37    21    30    2
    38    21    51    1
    39    22    74    2
    40    23    80    1
    41    23    49    1
    42    24    66    2
    43    25    44    1
    44    25    55    1
    45    25    49    1
    46    26    74    2
    47    27    45    2
    48    28    83    1
    49    29    70    2
    50    31    57    1
    51    33    71    1
    52    33    96    1
    53    33    84    1
    54    34    74    1
    55    36    89    1
    56    37    78    2
    57    39    79    1
    58    39    92    1
    59    40    58    1
    60    40    66    1
    61    41    82    2
    62    42    71    1
    63    43    67    1
    64    43    90    1
    65    44    97    1
    66    45    86    2
    67    45    94    1
    68    47    83    1
    69    48    88    1
    70    48    53    1
    71    48    60    1
    72    49    88    1
    73    50    60    1
    74    50    63    1
    75    50    89    1
    76    52    98    1
    77    52    59    1
    78    53    95    1
    79    54    84    1
    80    54    78    1
    81    56    69    1
    82    56    99    1
    83    57    84    1
    84    58    80    1
    85    59    77    1
    86    61    65    1
    87    63    81    1
    88    64    98    1
    89    64    70    1
    90    65    97    1
    91    66    72    2
    92    66   100    1
    93    67    77    1
    94    68    96    1
    95    69    82    1
    96    70    93    2
    97    70    87    1
    98    73    82    1
    99    75    78    2
   100    78    91    1
   101    79    99    1
   102    80    97    1
   103    83    99    1
   104    89    95    1
   105     1   101    1
   106     1   102    1
   107     4   103    1
   108     5   104    1
   109     7   105    1
   110    10   106    1
   111    10   107    1
   112    10   108    1
   113    11   109    1
   114    15   110    1
   115    15   111    1
   116    15   112    1
   117    25   113    1
   118    33   114    1
   119    34   115    1
   120    35   116    1
   121    42   117    1
   122    43   118    1
   123    43   119    1
   124    44   120    1
   125    48   121    1
   126    49   122    1
   127    50   123    1
   128    51   124    1
   129    52   125    1
   130    53   126    1
   131    56   127    1
   132    57   128    1
   133    58   129    1
   134    58   130    1
   135    59   131    1
   136    60   132    1
   137    61   133    1
   138    61   134    1
   139    61   135    1
   140    67   136    1
   141    68   137    1
   142    68   138    1
   143    68   139    1
   144    71   140    1
   145    73   141    1
   146    76   142    1
   147    76   143    1
   148    76   144    1
   149    80   145    1
   150    81   146    1
   151    81   147    1
   152    81   148    1
   153    83   149    1
   154    84   150    1
   155    85   151    1
   156    87   152    1
   157    89   153    1
   158    91   154    1
   159    92   155    1
   160    94   156    1
   161    97   157    1
   162    98   158    1
   163    99   159    1
   164   100   160    1
