@<TRIPOS>MOLECULE
3OGX_LIGAND_1_uncharged.pdb
 58 59 0 0 0
SMALL
GASTEIGER

@<TRIPOS>ATOM
      1  C12      -16.0610  -18.5080  -25.5760 C.3   173  H1S173      0.1660
      2  O28      -16.4900  -20.2310  -19.1290 O.3   173  H1S173     -0.2626
      3  O35      -11.6640  -21.1930  -25.6510 O.2   173  H1S173     -0.2481
      4  O3       -16.8150  -19.0170  -23.3170 O.3   173  H1S173     -0.3401
      5  O21      -22.4170  -17.6950  -26.0570 O.2   173  H1S173     -0.1181
      6  O33      -18.1410  -19.8840  -28.1170 O.2   173  H1S173     -0.1181
      7  C1       -17.7750  -20.0250  -22.9800 C.3   173  H1S173      0.1176
      8  C4       -17.4570  -20.6270  -21.6150 C.3   173  H1S173      0.1055
      9  O30      -16.0820  -22.5800  -19.5020 O.3   173  H1S173     -0.2626
     10  C8       -18.5960  -21.4990  -21.0630 C.3   173  H1S173      0.1076
     11  O13      -14.6150  -19.6840  -23.9610 O.3   173  H1S173     -0.3340
     12  C27      -12.5300  -21.0270  -24.7610 C.2   173  H1S173      0.3341
     13  O22      -22.0560  -15.9370  -24.3910 O.2   173  H1S173     -0.1181
     14  S26      -16.7150  -19.8270  -27.7220 S.O2  173  H1S173      0.2080
     15  C19      -13.6940  -20.1360  -25.0140 C.3   173  H1S173      0.1603
     16  O15      -20.4730  -20.0110  -20.5090 O.3   173  H1S173     -0.3656
     17  S16      -21.4060  -17.0490  -25.1460 S.O2  173  H1S173      0.2076
     18  N14      -18.4660  -21.7140  -19.6280 N.3   173  H1S173     -0.1845
     19  C24      -13.9510  -19.6610  -26.2340 C.3   173  H1S173      0.0128
     20  O23      -20.3090  -16.4150  -25.9420 O.3   173  H1S173     -0.2311
     21  O25      -14.0100  -17.2740  -25.7380 O.3   173  H1S173     -0.3889
     22  O31      -16.0710  -18.7640  -28.5440 O.2   173  H1S173     -0.1181
     23  O18      -17.0770  -18.9430  -26.4960 O.3   173  H1S173     -0.2048
     24  O5       -20.0680  -20.6030  -22.7900 O.3   173  H1S173     -0.3416
     25  O29      -17.1750  -21.7200  -17.4140 O.3   173  H1S173     -0.2626
     26  C6       -19.5660  -18.8170  -24.3600 C.3   173  H1S173      0.1076
     27  C7       -15.9740  -19.4750  -24.3940 C.3   173  H1S173      0.1914
     28  O11      -20.8040  -18.0850  -24.1210 O.3   173  H1S173     -0.2131
     29  O9       -16.3080  -21.4820  -21.7930 O.3   173  H1S173     -0.3874
     30  O34      -12.3930  -21.6170  -23.6590 O.3   173  H1S173     -0.4788
     31  S20      -17.0310  -21.5910  -18.8920 S.3   173  H1S173     -0.0198
     32  C10      -20.0190  -21.0410  -21.4180 C.3   173  H1S173      0.1762
     33  C2       -19.1990  -19.4920  -23.0300 C.3   173  H1S173      0.1159
     34  C17      -14.7390  -18.3660  -26.3170 C.3   173  H1S173      0.0914
     35  O32      -15.9940  -21.0940  -28.0190 O.3   173  H1S173     -0.2311
     36  H        -16.3110  -17.5490  -25.1730 H     173  H1S173      0.0698
     37  H        -16.3750  -20.0900  -20.0820 H     173  H1S173      0.2439
     38  H        -17.7080  -20.7990  -23.7160 H     173  H1S173      0.0650
     39  H        -17.2960  -19.8260  -20.9250 H     173  H1S173      0.0638
     40  H        -16.0390  -22.4380  -20.4600 H     173  H1S173      0.2439
     41  H        -18.4720  -22.4300  -21.5750 H     173  H1S173      0.0554
     42  H        -13.2000  -21.0060  -24.6350 H     173  H1S173      0.0715
     43  H        -20.4260  -20.3400  -19.5980 H     173  H1S173      0.2125
     44  H        -18.8060  -22.6580  -19.4450 H     173  H1S173      0.1485
     45  H        -14.5040  -20.4100  -26.7620 H     173  H1S173      0.0321
     46  H        -12.9930  -19.4300  -26.6500 H     173  H1S173      0.0321
     47  H        -20.6900  -15.7800  -26.5690 H     173  H1S173      0.2469
     48  H        -14.5370  -16.4620  -25.8050 H     173  H1S173      0.2099
     49  H        -16.3030  -21.6430  -16.9960 H     173  H1S173      0.2439
     50  H        -19.7130  -19.5540  -25.1210 H     173  H1S173      0.0611
     51  H        -18.7860  -18.1640  -24.6920 H     173  H1S173      0.0611
     52  H        -16.3320  -20.4290  -24.7200 H     173  H1S173      0.0939
     53  H        -16.5220  -22.1830  -22.4280 H     173  H1S173      0.2100
     54  H        -13.0320  -21.5030  -22.9840 H     173  H1S173      0.2951
     55  H        -20.6870  -21.8700  -21.3110 H     173  H1S173      0.0925
     56  H        -19.2990  -18.7270  -22.2890 H     173  H1S173      0.0648
     57  H        -14.9130  -18.1630  -27.3530 H     173  H1S173      0.0622
     58  H        -16.3830  -21.8160  -27.5020 H     173  H1S173      0.2469
@<TRIPOS>BOND
     1     1    27    1
     2     1    34    1
     3     1    23    1
     4     1    36    1
     5     2    31    1
     6     2    37    1
     7     3    12    2
     8     4     7    1
     9     4    27    1
    10     5    17    2
    11     6    14    2
    12     7    33    1
    13     7     8    1
    14     7    38    1
    15     8    10    1
    16     8    29    1
    17     8    39    1
    18     9    31    1
    19     9    40    1
    20    10    32    1
    21    10    18    1
    22    10    41    1
    23    11    27    1
    24    11    15    1
    25    12    15    1
    26    12    30    1
    27    13    17    2
    28    14    23    1
    29    14    22    2
    30    14    35    1
    31    15    19    1
    32    15    42    1
    33    16    32    1
    34    16    43    1
    35    17    28    1
    36    17    20    1
    37    18    31    1
    38    18    44    1
    39    19    34    1
    40    19    45    1
    41    19    46    1
    42    20    47    1
    43    21    34    1
    44    21    48    1
    45    24    33    1
    46    24    32    1
    47    25    31    1
    48    25    49    1
    49    26    33    1
    50    26    28    1
    51    26    50    1
    52    26    51    1
    53    27    52    1
    54    29    53    1
    55    30    54    1
    56    32    55    1
    57    33    56    1
    58    34    57    1
    59    35    58    1
