@<TRIPOS>MOLECULE
3OJV_LIGAND_1_uncharged.pdb
 152 157 0 0 0
SMALL
GASTEIGER

@<TRIPOS>ATOM
      1  C6        21.3830   15.3450    7.4920 C.2   305  IDS305      0.3367
      2  O61       16.0030   10.0700   14.3600 O.2   303  IDS303     -0.2480
      3  O5S       14.6350   13.5580    8.5320 O.2   304  SGN304     -0.3452
      4  O5        24.6760   17.5180    4.6520 O.3   306  SGN306     -0.3699
      5  O61        8.4970    8.9040   15.4300 O.2   301  UAP301     -0.2417
      6  S1        21.7340   21.1800    4.8550 S.3   306  SGN306      0.0767
      7  C1        16.1290    6.5160   11.8830 C.3   302  SGN302      0.1795
      8  C4        18.6990   13.0200   11.0300 C.3   304  SGN304      0.1176
      9  O1S       22.2290   15.8810   14.9870 O.3   304  SGN304     -0.0534
     10  O5        18.5440   15.4210   10.6740 O.3   304  SGN304     -0.3413
     11  C5        18.3800   14.1660   10.0420 C.3   304  SGN304      0.1158
     12  O5        23.4940   15.6490    8.6750 O.3   305  IDS305     -0.3314
     13  O4        21.0280   15.5450   10.2910 O.3   305  IDS305     -0.3406
     14  C2        20.1060   14.5420   12.2720 C.3   304  SGN304      0.1081
     15  O2S       19.9870   16.6430   14.0280 O.3   304  SGN304     -0.0534
     16  O6        26.3180   15.5710    4.8750 O.3   306  SGN306     -0.2520
     17  C4        14.1640    5.3980   13.7940 C.3   302  SGN302      0.1186
     18  C1        19.8780   15.6530   11.2460 C.3   304  SGN304      0.1795
     19  C4        21.4420   16.7500    9.5900 C.3   305  IDS305      0.1267
     20  C2        23.8110   17.0930   10.7140 C.3   305  IDS305      0.1644
     21  C5        17.5430    9.7770   12.4740 C.3   303  IDS303      0.1863
     22  S2        17.5320    4.7670   17.2490 S.3   302  SGN302     -0.0008
     23  O5        16.5120    5.9080   13.1870 O.3   302  SGN302     -0.3413
     24  O5S       16.3890    4.9050   18.1690 O.2   302  SGN302     -0.3452
     25  O5        16.7510   10.8140   11.7730 O.3   303  IDS303     -0.3314
     26  O5        11.3080    6.7610   15.0060 O.2   301  UAP301     -0.4538
     27  O3        19.3530    9.0890   10.3340 O.3   303  IDS303     -0.3863
     28  C3        20.1390   13.1700   11.5420 C.3   304  SGN304      0.1055
     29  C1        17.2480   11.1370   10.4040 C.3   303  IDS303      0.1915
     30  O3S       16.0250    9.3520    6.6030 O.2   303  IDS303     -0.3452
     31  O3S       20.2420   14.5370   15.2050 O.3   304  SGN304     -0.0534
     32  C4        10.7830    8.1140   16.9520 C.2   301  UAP301     -0.0041
     33  O6        16.4600   15.1180    8.7360 O.3   304  SGN304     -0.2520
     34  C3        22.3780   17.7260   10.4570 C.3   305  IDS305      0.1174
     35  C2        17.2090    9.9230    9.4630 C.3   303  IDS303      0.1644
     36  O61       21.7860   14.2030    7.2410 O.2   305  IDS305     -0.2480
     37  O6S       17.5860    3.2970   16.8010 O.3   302  SGN302     -0.2682
     38  S         24.9690   15.9770   12.6410 S.3   305  IDS305     -0.0004
     39  O2S       21.4000   20.1780    3.8110 O.3   306  SGN306     -0.0534
     40  O3        22.6040   18.8830    9.6760 O.3   305  IDS305     -0.3863
     41  S         12.6140    3.8580   17.9230 S.3   301  UAP301     -0.0003
     42  O2S       16.1670   11.5620    7.4790 O.2   303  IDS303     -0.3452
     43  O6        17.1950    5.6930   16.0270 O.3   302  SGN302     -0.2520
     44  O3        20.4010   12.1240   12.4590 O.3   304  SGN304     -0.3874
     45  C6        25.4830   15.8160    6.0470 C.3   306  SGN306      0.1034
     46  O4        13.2270    5.4290   14.9250 O.3   302  SGN302     -0.3309
     47  N         23.3060   20.8640    5.1720 N.3   306  SGN306     -0.1802
     48  O2S       26.1910   16.1000   11.8590 O.2   305  IDS305     -0.3452
     49  C1        12.6550    6.5840   15.5100 C.3   301  UAP301      0.2339
     50  C2        23.5290   19.4970    5.4480 C.3   306  SGN306      0.0806
     51  C4        24.2970   17.8720    7.0850 C.3   306  SGN306      0.1174
     52  C1        24.4460   18.9110    4.3990 C.3   306  SGN306      0.0677
     53  N         14.4600    6.6720   10.1750 N.3   302  SGN302     -0.1775
     54  C3        13.6860    6.2260   12.5440 C.3   302  SGN302      0.1055
     55  O3        13.0410    8.6840   17.7560 O.3   301  UAP301     -0.3848
     56  C5        22.2270   16.3050    8.3040 C.3   305  IDS305      0.1863
     57  O6S       14.1370   15.6060    9.6330 O.2   304  SGN304     -0.3452
     58  O1S       21.6660   22.6300    4.6170 O.3   306  SGN306     -0.0534
     59  O62       17.5850    8.5530   14.6620 O.3   303  IDS303     -0.4788
     60  S2        26.6640   14.0890    4.7300 S.3   306  SGN306     -0.0008
     61  C5        25.2420   17.3190    5.9660 C.3   306  SGN306      0.1128
     62  O4        24.8420   17.7000    8.4700 O.3   306  SGN306     -0.3401
     63  O62       20.1960   15.7680    7.0320 O.3   305  IDS305     -0.4788
     64  O62        9.0740    7.6150   13.6750 O.3   301  UAP301     -0.4750
     65  C6        15.9800    5.2250   15.5020 C.3   302  SGN302      0.1035
     66  O4        18.5500   11.7250   10.3770 O.3   304  SGN304     -0.3401
     67  O2        11.7420    5.1500   17.4550 O.3   301  UAP301     -0.2421
     68  C2        12.6180    6.3300   17.0850 C.3   301  UAP301      0.1768
     69  O1S       14.7100    7.0500    7.7480 O.3   302  SGN302     -0.0534
     70  N         21.3290   14.8620   12.9210 N.3   304  SGN304     -0.1775
     71  C6        16.8750   14.0890    9.6230 C.3   304  SGN304      0.1035
     72  O3S       20.9160   20.7780    6.1240 O.3   306  SGN306     -0.0534
     73  C4        17.4900    8.4600   11.6870 C.3   303  IDS303      0.1267
     74  O5S       27.7040   13.8770    5.7370 O.2   306  SGN306     -0.3452
     75  O4S       14.6520   15.7490    7.3020 O.3   304  SGN304     -0.2682
     76  O4        16.1610    7.9510   11.8130 O.3   303  IDS303     -0.3406
     77  O4S       18.8750    5.1050   17.6280 O.2   302  SGN302     -0.3452
     78  O2S       13.5850    3.6470   16.8280 O.2   301  UAP301     -0.3452
     79  O6S       25.4490   13.2240    5.1250 O.3   306  SGN306     -0.2682
     80  O4S       26.9040   13.9040    3.3200 O.2   306  SGN306     -0.3452
     81  O2        23.7510   15.9340   11.5970 O.3   305  IDS305     -0.2435
     82  O3S       14.8940    4.7350    8.4060 O.3   302  SGN302     -0.0534
     83  O1S       11.6850    2.7910   18.2920 O.2   301  UAP301     -0.3452
     84  S2        14.9200   14.9710    8.4800 S.3   304  SGN304     -0.0008
     85  C3        17.9750    8.6950   10.2100 C.3   303  IDS303      0.1174
     86  O3        23.2110   19.9790    7.7470 O.3   306  SGN306     -0.3875
     87  O2        15.7500    9.7930    9.1440 O.3   303  IDS303     -0.2435
     88  C5        15.4940    5.9960   14.2600 C.3   302  SGN302      0.1158
     89  C3        12.0290    7.6420   17.7530 C.3   301  UAP301      0.1114
     90  C2        14.7510    6.0090   11.4440 C.3   302  SGN302      0.1081
     91  S1        15.2430    6.1730    8.7550 S.3   302  SGN302      0.0767
     92  C1        24.4110   16.5860    9.3560 C.3   305  IDS305      0.1915
     93  O3S       13.4270    4.2170   19.2060 O.3   301  UAP301     -0.2682
     94  C6         9.3040    8.1050   14.9380 C.2   301  UAP301      0.3717
     95  C3        24.1130   19.3710    6.8130 C.3   306  SGN306      0.1029
     96  O1S       14.0270   10.2470    7.4710 O.3   303  IDS303     -0.2682
     97  S         15.4360   10.3210    7.6370 S.3   303  IDS303     -0.0004
     98  O3        12.4400    5.7360   12.0620 O.3   302  SGN302     -0.3874
     99  O3S       24.8140   17.2590   13.4880 O.3   305  IDS305     -0.2682
    100  S1        20.9740   15.5890   14.3570 S.3   304  SGN304      0.0767
    101  O1S       24.8170   14.8310   13.5010 O.2   305  IDS305     -0.3452
    102  C6        16.9910    9.4850   13.9110 C.2   303  IDS303      0.3367
    103  C5        10.5340    7.6460   15.6960 C.2   301  UAP301      0.2060
    104  O2S       16.6540    6.1040    9.0280 O.3   302  SGN302     -0.0534
    105  H         16.8980    6.1940   11.2120 H     302  SGN302      0.0927
    106  H         18.0140   13.0740   11.8500 H     304  SGN304      0.0650
    107  H         19.0370   14.0670    9.2030 H     304  SGN304      0.0648
    108  H         19.3260   14.4690   13.0000 H     304  SGN304      0.0554
    109  H         14.2430    4.3750   13.4890 H     302  SGN302      0.0651
    110  H         19.8690   16.6560   11.6190 H     304  SGN304      0.0927
    111  H         20.5580   17.3090    9.3650 H     305  IDS305      0.0656
    112  H         24.4090   17.8590   11.1630 H     305  IDS305      0.0698
    113  H         18.5430   10.1500   12.5490 H     303  IDS303      0.0742
    114  H         19.7230    9.2530    9.4520 H     303  IDS303      0.2100
    115  H         20.8900   13.1250   10.7810 H     304  SGN304      0.0638
    116  H         16.5610   11.8760   10.0480 H     303  IDS303      0.0939
    117  H         10.1330    8.7930   17.3780 H     301  UAP301      0.0637
    118  H         21.8950   17.9150   11.3930 H     305  IDS305      0.0649
    119  H         17.7290    9.9780    8.5290 H     303  IDS303      0.0698
    120  H         23.0420   18.6330    8.8480 H     305  IDS305      0.2100
    121  H         19.7350   12.1370   13.1640 H     304  SGN304      0.2100
    122  H         25.9950   15.5540    6.9490 H     306  SGN306      0.0610
    123  H         24.5830   15.2380    6.0600 H     306  SGN306      0.0610
    124  H         23.5950   21.4140    5.9810 H     306  SGN306      0.1486
    125  H         13.2200    7.4620   15.2770 H     301  UAP301      0.1085
    126  H         22.6080   18.9540    5.4190 H     306  SGN306      0.0526
    127  H         23.3800   17.3220    7.0500 H     306  SGN306      0.0650
    128  H         23.9950   19.0240    3.4350 H     306  SGN306      0.0577
    129  H         25.3830   19.4270    4.4320 H     306  SGN306      0.0577
    130  H         14.6820    7.6600   10.3020 H     302  SGN302      0.1487
    131  H         13.5670    7.2570   12.8050 H     302  SGN302      0.0638
    132  H         12.6790    9.4860   18.1650 H     301  UAP301      0.2103
    133  H         22.4430   17.1750    7.7200 H     305  IDS305      0.0742
    134  H         18.3370    8.0980   14.3370 H     303  IDS303      0.2951
    135  H         26.1540   17.8580    6.1200 H     306  SGN306      0.0647
    136  H         19.9000   16.6350    7.2280 H     305  IDS305      0.2951
    137  H          9.6770    7.0090   13.2900 H     301  UAP301      0.2955
    138  H         15.2320    5.3060   16.2620 H     302  SGN302      0.0610
    139  H         16.1460    4.2140   15.1930 H     302  SGN302      0.0610
    140  H         13.6070    6.1080   17.4280 H     301  UAP301      0.0712
    141  H         21.8740   15.4970   12.3380 H     304  SGN304      0.1487
    142  H         16.2770   14.1490   10.5090 H     304  SGN304      0.0610
    143  H         16.7510   13.1650    9.0980 H     304  SGN304      0.0610
    144  H         18.1590    7.7190   12.0720 H     303  IDS303      0.0656
    145  H         17.7940    7.8090    9.6380 H     303  IDS303      0.0649
    146  H         23.1220   20.9230    7.5420 H     306  SGN306      0.2100
    147  H         15.3490    7.0280   14.5020 H     302  SGN302      0.0648
    148  H         11.7410    7.4330   18.7620 H     301  UAP301      0.0668
    149  H         14.7380    4.9490   11.2960 H     302  SGN302      0.0554
    150  H         25.3000   16.0400    9.5940 H     305  IDS305      0.0939
    151  H         25.0590   19.8630    6.9050 H     306  SGN306      0.0637
    152  H         12.5320    4.8010   11.8210 H     302  SGN302      0.2100
@<TRIPOS>BOND
     1     1    56    1
     2     1    36    2
     3     1    63    1
     4     2   102    2
     5     3    84    2
     6     4    52    1
     7     4    61    1
     8     5    94    2
     9     6    47    1
    10     6    58    1
    11     6    39    1
    12     6    72    1
    13     7    90    1
    14     7    23    1
    15     7    76    1
    16     7   105    1
    17     8    28    1
    18     8    11    1
    19     8    66    1
    20     8   106    1
    21     9   100    1
    22    10    18    1
    23    10    11    1
    24    11    71    1
    25    11   107    1
    26    12    92    1
    27    12    56    1
    28    13    18    1
    29    13    19    1
    30    14    18    1
    31    14    28    1
    32    14    70    1
    33    14   108    1
    34    15   100    1
    35    16    45    1
    36    16    60    1
    37    17    54    1
    38    17    88    1
    39    17    46    1
    40    17   109    1
    41    18   110    1
    42    19    34    1
    43    19    56    1
    44    19   111    1
    45    20    92    1
    46    20    34    1
    47    20    81    1
    48    20   112    1
    49    21    73    1
    50    21   102    1
    51    21    25    1
    52    21   113    1
    53    22    43    1
    54    22    77    2
    55    22    24    2
    56    22    37    1
    57    23    88    1
    58    25    29    1
    59    26    49    1
    60    26   103    1
    61    27    85    1
    62    27   114    1
    63    28    44    1
    64    28   115    1
    65    29    35    1
    66    29    66    1
    67    29   116    1
    68    30    97    2
    69    31   100    1
    70    32    89    1
    71    32   103    2
    72    32   117    1
    73    33    71    1
    74    33    84    1
    75    34    40    1
    76    34   118    1
    77    35    85    1
    78    35    87    1
    79    35   119    1
    80    38    81    1
    81    38   101    2
    82    38    48    2
    83    38    99    1
    84    40   120    1
    85    41    67    1
    86    41    83    2
    87    41    78    2
    88    41    93    1
    89    42    97    2
    90    43    65    1
    91    44   121    1
    92    45    61    1
    93    45   122    1
    94    45   123    1
    95    46    49    1
    96    47    50    1
    97    47   124    1
    98    49    68    1
    99    49   125    1
   100    50    52    1
   101    50    95    1
   102    50   126    1
   103    51    95    1
   104    51    61    1
   105    51    62    1
   106    51   127    1
   107    52   128    1
   108    52   129    1
   109    53    90    1
   110    53    91    1
   111    53   130    1
   112    54    90    1
   113    54    98    1
   114    54   131    1
   115    55    89    1
   116    55   132    1
   117    56   133    1
   118    57    84    2
   119    59   102    1
   120    59   134    1
   121    60    80    2
   122    60    74    2
   123    60    79    1
   124    61   135    1
   125    62    92    1
   126    63   136    1
   127    64    94    1
   128    64   137    1
   129    65    88    1
   130    65   138    1
   131    65   139    1
   132    67    68    1
   133    68    89    1
   134    68   140    1
   135    69    91    1
   136    70   100    1
   137    70   141    1
   138    71   142    1
   139    71   143    1
   140    73    85    1
   141    73    76    1
   142    73   144    1
   143    75    84    1
   144    82    91    1
   145    85   145    1
   146    86    95    1
   147    86   146    1
   148    87    97    1
   149    88   147    1
   150    89   148    1
   151    90   149    1
   152    91   104    1
   153    92   150    1
   154    94   103    1
   155    95   151    1
   156    96    97    1
   157    98   152    1
