@<TRIPOS>MOLECULE
3OJV_LIGAND_1.pdb
 167 172 0 0 0
SMALL
GASTEIGER

@<TRIPOS>ATOM
      1  C6        21.3830   15.3450    7.4920 C.2   305  IDS305      0.3367
      2  O61       16.0030   10.0700   14.3600 O.2   303  IDS303     -0.2480
      3  O5S       14.6350   13.5580    8.5320 O.2   304  SGN304     -0.1181
      4  O5        24.6760   17.5180    4.6520 O.3   306  SGN306     -0.3699
      5  O61        8.4970    8.9040   15.4300 O.2   301  UAP301     -0.2417
      6  S1        21.7340   21.1800    4.8550 S.3   306  SGN306     -0.0199
      7  C1        16.1290    6.5160   11.8830 C.3   302  SGN302      0.1795
      8  C4        18.6990   13.0200   11.0300 C.3   304  SGN304      0.1176
      9  O1S       22.2290   15.8810   14.9870 O.3   304  SGN304     -0.2626
     10  O5        18.5440   15.4210   10.6740 O.3   304  SGN304     -0.3413
     11  C5        18.3800   14.1660   10.0420 C.3   304  SGN304      0.1159
     12  O5        23.4940   15.6490    8.6750 O.3   305  IDS305     -0.3314
     13  O4        21.0280   15.5450   10.2910 O.3   305  IDS305     -0.3406
     14  C2        20.1060   14.5420   12.2720 C.3   304  SGN304      0.1078
     15  O2S       19.9870   16.6430   14.0280 O.3   304  SGN304     -0.2626
     16  O6        26.3180   15.5710    4.8750 O.3   306  SGN306     -0.2131
     17  C4        14.1640    5.3980   13.7940 C.3   302  SGN302      0.1186
     18  C1        19.8780   15.6530   11.2460 C.3   304  SGN304      0.1795
     19  C4        21.4420   16.7500    9.5900 C.3   305  IDS305      0.1267
     20  C2        23.8110   17.0930   10.7140 C.3   305  IDS305      0.1684
     21  C5        17.5430    9.7770   12.4740 C.3   303  IDS303      0.1863
     22  S2        17.5320    4.7670   17.2490 S.O2  302  SGN302      0.2076
     23  O5        16.5120    5.9080   13.1870 O.3   302  SGN302     -0.3413
     24  O5S       16.3890    4.9050   18.1690 O.2   302  SGN302     -0.1181
     25  O5        16.7510   10.8140   11.7730 O.3   303  IDS303     -0.3314
     26  O5        11.3080    6.7610   15.0060 O.2   301  UAP301     -0.4538
     27  O3        19.3530    9.0890   10.3340 O.3   303  IDS303     -0.3863
     28  C3        20.1390   13.1700   11.5420 C.3   304  SGN304      0.1055
     29  C1        17.2480   11.1370   10.4040 C.3   303  IDS303      0.1916
     30  O3S       16.0250    9.3520    6.6030 O.2   303  IDS303     -0.1181
     31  O3S       20.2420   14.5370   15.2050 O.3   304  SGN304     -0.2626
     32  C4        10.7830    8.1140   16.9520 C.2   301  UAP301     -0.0041
     33  O6        16.4600   15.1180    8.7360 O.3   304  SGN304     -0.2131
     34  C3        22.3780   17.7260   10.4570 C.3   305  IDS305      0.1176
     35  C2        17.2090    9.9230    9.4630 C.3   303  IDS303      0.1684
     36  O61       21.7860   14.2030    7.2410 O.2   305  IDS305     -0.2480
     37  O6S       17.5860    3.2970   16.8010 O.3   302  SGN302     -0.2311
     38  S         24.9690   15.9770   12.6410 S.O2  305  IDS305      0.2080
     39  O2S       21.4000   20.1780    3.8110 O.3   306  SGN306     -0.2626
     40  O3        22.6040   18.8830    9.6760 O.3   305  IDS305     -0.3863
     41  S         12.6140    3.8580   17.9230 S.O2  301  UAP301      0.2080
     42  O2S       16.1670   11.5620    7.4790 O.2   303  IDS303     -0.1181
     43  O6        17.1950    5.6930   16.0270 O.3   302  SGN302     -0.2131
     44  O3        20.4010   12.1240   12.4590 O.3   304  SGN304     -0.3874
     45  C6        25.4830   15.8160    6.0470 C.3   306  SGN306      0.1075
     46  O4        13.2270    5.4290   14.9250 O.3   302  SGN302     -0.3308
     47  N         23.3060   20.8640    5.1720 N.3   306  SGN306     -0.1872
     48  O2S       26.1910   16.1000   11.8590 O.2   305  IDS305     -0.1181
     49  C1        12.6550    6.5840   15.5100 C.3   301  UAP301      0.2340
     50  C2        23.5290   19.4970    5.4480 C.3   306  SGN306      0.0804
     51  C4        24.2970   17.8720    7.0850 C.3   306  SGN306      0.1174
     52  C1        24.4460   18.9110    4.3990 C.3   306  SGN306      0.0677
     53  N         14.4600    6.6720   10.1750 N.3   302  SGN302     -0.1845
     54  C3        13.6860    6.2260   12.5440 C.3   302  SGN302      0.1055
     55  O3        13.0410    8.6840   17.7560 O.3   301  UAP301     -0.3848
     56  C5        22.2270   16.3050    8.3040 C.3   305  IDS305      0.1863
     57  O6S       14.1370   15.6060    9.6330 O.2   304  SGN304     -0.1181
     58  O1S       21.6660   22.6300    4.6170 O.3   306  SGN306     -0.2626
     59  O62       17.5850    8.5530   14.6620 O.3   303  IDS303     -0.4788
     60  S2        26.6640   14.0890    4.7300 S.O2  306  SGN306      0.2076
     61  C5        25.2420   17.3190    5.9660 C.3   306  SGN306      0.1129
     62  O4        24.8420   17.7000    8.4700 O.3   306  SGN306     -0.3401
     63  O62       20.1960   15.7680    7.0320 O.3   305  IDS305     -0.4788
     64  O62        9.0740    7.6150   13.6750 O.3   301  UAP301     -0.4750
     65  C6        15.9800    5.2250   15.5020 C.3   302  SGN302      0.1076
     66  O4        18.5500   11.7250   10.3770 O.3   304  SGN304     -0.3401
     67  O2        11.7420    5.1500   17.4550 O.3   301  UAP301     -0.2032
     68  C2        12.6180    6.3300   17.0850 C.3   301  UAP301      0.1808
     69  O1S       14.7100    7.0500    7.7480 O.3   302  SGN302     -0.2626
     70  N         21.3290   14.8620   12.9210 N.3   304  SGN304     -0.1845
     71  C6        16.8750   14.0890    9.6230 C.3   304  SGN304      0.1076
     72  O3S       20.9160   20.7780    6.1240 O.3   306  SGN306     -0.2626
     73  C4        17.4900    8.4600   11.6870 C.3   303  IDS303      0.1267
     74  O5S       27.7040   13.8770    5.7370 O.2   306  SGN306     -0.1181
     75  O4S       14.6520   15.7490    7.3020 O.3   304  SGN304     -0.2311
     76  O4        16.1610    7.9510   11.8130 O.3   303  IDS303     -0.3406
     77  O4S       18.8750    5.1050   17.6280 O.2   302  SGN302     -0.1181
     78  O2S       13.5850    3.6470   16.8280 O.2   301  UAP301     -0.1181
     79  O6S       25.4490   13.2240    5.1250 O.3   306  SGN306     -0.2311
     80  O4S       26.9040   13.9040    3.3200 O.2   306  SGN306     -0.1181
     81  O2        23.7510   15.9340   11.5970 O.3   305  IDS305     -0.2047
     82  O3S       14.8940    4.7350    8.4060 O.3   302  SGN302     -0.2626
     83  O1S       11.6850    2.7910   18.2920 O.2   301  UAP301     -0.1181
     84  S2        14.9200   14.9710    8.4800 S.O2  304  SGN304      0.2076
     85  C3        17.9750    8.6950   10.2100 C.3   303  IDS303      0.1176
     86  O3        23.2110   19.9790    7.7470 O.3   306  SGN306     -0.3875
     87  O2        15.7500    9.7930    9.1440 O.3   303  IDS303     -0.2047
     88  C5        15.4940    5.9960   14.2600 C.3   302  SGN302      0.1159
     89  C3        12.0290    7.6420   17.7530 C.3   301  UAP301      0.1116
     90  C2        14.7510    6.0090   11.4440 C.3   302  SGN302      0.1078
     91  S1        15.2430    6.1730    8.7550 S.3   302  SGN302     -0.0198
     92  C1        24.4110   16.5860    9.3560 C.3   305  IDS305      0.1916
     93  O3S       13.4270    4.2170   19.2060 O.3   301  UAP301     -0.2311
     94  C6         9.3040    8.1050   14.9380 C.2   301  UAP301      0.3717
     95  C3        24.1130   19.3710    6.8130 C.3   306  SGN306      0.1029
     96  O1S       14.0270   10.2470    7.4710 O.3   303  IDS303     -0.2311
     97  S         15.4360   10.3210    7.6370 S.O2  303  IDS303      0.2080
     98  O3        12.4400    5.7360   12.0620 O.3   302  SGN302     -0.3874
     99  O3S       24.8140   17.2590   13.4880 O.3   305  IDS305     -0.2311
    100  S1        20.9740   15.5890   14.3570 S.3   304  SGN304     -0.0198
    101  O1S       24.8170   14.8310   13.5010 O.2   305  IDS305     -0.1181
    102  C6        16.9910    9.4850   13.9110 C.2   303  IDS303      0.3367
    103  C5        10.5340    7.6460   15.6960 C.2   301  UAP301      0.2060
    104  O2S       16.6540    6.1040    9.0280 O.3   302  SGN302     -0.2626
    105 H          16.8979    6.1941   11.2121 H     302  SGN302      0.0927
    106 H          18.0140   13.0738   11.8502 H     304  SGN304      0.0650
    107 H          22.0694   16.3124   15.8410 H     304  SGN304      0.2439
    108 H          19.0366   14.0667    9.2030 H     304  SGN304      0.0648
    109 H          19.3255   14.4685   13.0003 H     304  SGN304      0.0554
    110 H          19.7341   17.1132   14.8378 H     304  SGN304      0.2439
    111 H          14.2434    4.3755   13.4888 H     302  SGN302      0.0651
    112 H          19.8687   16.6559   11.6188 H     304  SGN304      0.0927
    113 H          20.5578   17.3090    9.3648 H     305  IDS305      0.0656
    114 H          24.4085   17.8586   11.1632 H     305  IDS305      0.0699
    115 H          18.5429   10.1505   12.5486 H     303  IDS303      0.0742
    116 H          19.7230    9.2528    9.4524 H     303  IDS303      0.2100
    117 H          20.8900   13.1254   10.7811 H     304  SGN304      0.0638
    118 H          16.5613   11.8764   10.0482 H     303  IDS303      0.0939
    119 H          20.0105   14.9196   16.0658 H     304  SGN304      0.2439
    120 H          10.1333    8.7931   17.3783 H     301  UAP301      0.0637
    121 H          21.8952   17.9153   11.3929 H     305  IDS305      0.0649
    122 H          17.7286    9.9780    8.5292 H     303  IDS303      0.0699
    123 H          18.3305    3.1717   16.1920 H     302  SGN302      0.2469
    124 H          21.8859   20.3846    2.9973 H     306  SGN306      0.2439
    125 H          23.0424   18.6333    8.8475 H     305  IDS305      0.2100
    126 H          19.7348   12.1375   13.1639 H     304  SGN304      0.2100
    127 H          25.9950   15.5538    6.9492 H     306  SGN306      0.0611
    128 H          24.5827   15.2379    6.0600 H     306  SGN306      0.0611
    129 H          23.5952   21.4141    5.9808 H     306  SGN306      0.1484
    130 H          13.2200    7.4624   15.2774 H     301  UAP301      0.1085
    131 H          22.6076   18.9538    5.4188 H     306  SGN306      0.0526
    132 H          23.3801   17.3215    7.0500 H     306  SGN306      0.0650
    133 H          23.9953   19.0238    3.4351 H     306  SGN306      0.0577
    134 H          25.3827   19.4272    4.4319 H     306  SGN306      0.0577
    135 H          14.6819    7.6595   10.3016 H     302  SGN302      0.1485
    136 H          13.5669    7.2569   12.8048 H     302  SGN302      0.0638
    137 H          12.6786    9.4855   18.1650 H     301  UAP301      0.2103
    138 H          22.4431   17.1751    7.7200 H     305  IDS305      0.0742
    139 H          22.1808   22.8522    3.8255 H     306  SGN306      0.2439
    140 H          18.3370    8.0984   14.3367 H     303  IDS303      0.2951
    141 H          26.1535   17.8578    6.1203 H     306  SGN306      0.0647
    142 H          19.8997   16.6351    7.2277 H     305  IDS305      0.2951
    143 H           9.6768    7.0094   13.2904 H     301  UAP301      0.2955
    144 H          15.2316    5.3064   16.2624 H     302  SGN302      0.0611
    145 H          16.1460    4.2142   15.1928 H     302  SGN302      0.0611
    146 H          13.6068    6.1080   17.4283 H     301  UAP301      0.0714
    147 H          13.7454    6.9541    7.7134 H     302  SGN302      0.2439
    148 H          21.8737   15.4971   12.3377 H     304  SGN304      0.1485
    149 H          16.2775   14.1492   10.5086 H     304  SGN304      0.0611
    150 H          16.7507   13.1648    9.0984 H     304  SGN304      0.0611
    151 H          21.1004   21.4060    6.8399 H     306  SGN306      0.2439
    152 H          18.1585    7.7188   12.0724 H     303  IDS303      0.0656
    153 H          15.1345   15.3727    6.5493 H     304  SGN304      0.2469
    154 H          24.7408   13.3444    4.4732 H     306  SGN306      0.2469
    155 H          13.9478    4.6723    8.2019 H     302  SGN302      0.2439
    156 H          17.7943    7.8089    9.6381 H     303  IDS303      0.0649
    157 H          23.1215   20.9229    7.5424 H     306  SGN306      0.2100
    158 H          15.3487    7.0282   14.5015 H     302  SGN302      0.0648
    159 H          11.7410    7.4330   18.7621 H     301  UAP301      0.0668
    160 H          14.7381    4.9494   11.2960 H     302  SGN302      0.0554
    161 H          25.3000   16.0402    9.5941 H     305  IDS305      0.0939
    162 H          12.8164    4.3621   19.9456 H     301  UAP301      0.2469
    163 H          25.0590   19.8625    6.9048 H     306  SGN306      0.0637
    164 H          13.7896   10.5535    6.5818 H     303  IDS303      0.2469
    165 H          12.5317    4.8009   11.8209 H     302  SGN302      0.2100
    166 H          24.0044   17.1998   14.0190 H     305  IDS305      0.2469
    167 H          16.9810    6.9859    9.2650 H     302  SGN302      0.2439
@<TRIPOS>BOND
     1     1    56    1
     2     1    36    2
     3     1    63    1
     4     2   102    2
     5     3    84    2
     6     4    52    1
     7     4    61    1
     8     5    94    2
     9     6    47    1
    10     6    58    1
    11     6    39    1
    12     6    72    1
    13     7    90    1
    14     7    23    1
    15     7    76    1
    16     8    28    1
    17     8    11    1
    18     8    66    1
    19     9   100    1
    20    10    18    1
    21    10    11    1
    22    11    71    1
    23    12    92    1
    24    12    56    1
    25    13    18    1
    26    13    19    1
    27    14    18    1
    28    14    28    1
    29    14    70    1
    30    15   100    1
    31    16    45    1
    32    16    60    1
    33    17    54    1
    34    17    88    1
    35    17    46    1
    36    19    34    1
    37    19    56    1
    38    20    92    1
    39    20    34    1
    40    20    81    1
    41    21    73    1
    42    21   102    1
    43    21    25    1
    44    22    43    1
    45    22    77    2
    46    22    24    2
    47    22    37    1
    48    23    88    1
    49    25    29    1
    50    26    49    1
    51    26   103    1
    52    27    85    1
    53    28    44    1
    54    29    35    1
    55    29    66    1
    56    30    97    2
    57    31   100    1
    58    32    89    1
    59    32   103    2
    60    33    71    1
    61    33    84    1
    62    34    40    1
    63    35    85    1
    64    35    87    1
    65    38    81    1
    66    38   101    2
    67    38    48    2
    68    38    99    1
    69    41    67    1
    70    41    83    2
    71    41    78    2
    72    41    93    1
    73    42    97    2
    74    43    65    1
    75    45    61    1
    76    46    49    1
    77    47    50    1
    78    49    68    1
    79    50    52    1
    80    50    95    1
    81    51    95    1
    82    51    61    1
    83    51    62    1
    84    53    90    1
    85    53    91    1
    86    54    90    1
    87    54    98    1
    88    55    89    1
    89    57    84    2
    90    59   102    1
    91    60    80    2
    92    60    74    2
    93    60    79    1
    94    62    92    1
    95    64    94    1
    96    65    88    1
    97    67    68    1
    98    68    89    1
    99    69    91    1
   100    70   100    1
   101    73    85    1
   102    73    76    1
   103    75    84    1
   104    82    91    1
   105    86    95    1
   106    87    97    1
   107    91   104    1
   108    94   103    1
   109    96    97    1
   110     7   105    1
   111     8   106    1
   112     9   107    1
   113    11   108    1
   114    14   109    1
   115    15   110    1
   116    17   111    1
   117    18   112    1
   118    19   113    1
   119    20   114    1
   120    21   115    1
   121    27   116    1
   122    28   117    1
   123    29   118    1
   124    31   119    1
   125    32   120    1
   126    34   121    1
   127    35   122    1
   128    37   123    1
   129    39   124    1
   130    40   125    1
   131    44   126    1
   132    45   127    1
   133    45   128    1
   134    47   129    1
   135    49   130    1
   136    50   131    1
   137    51   132    1
   138    52   133    1
   139    52   134    1
   140    53   135    1
   141    54   136    1
   142    55   137    1
   143    56   138    1
   144    58   139    1
   145    59   140    1
   146    61   141    1
   147    63   142    1
   148    64   143    1
   149    65   144    1
   150    65   145    1
   151    68   146    1
   152    69   147    1
   153    70   148    1
   154    71   149    1
   155    71   150    1
   156    72   151    1
   157    73   152    1
   158    75   153    1
   159    79   154    1
   160    82   155    1
   161    85   156    1
   162    86   157    1
   163    88   158    1
   164    89   159    1
   165    90   160    1
   166    92   161    1
   167    93   162    1
   168    95   163    1
   169    96   164    1
   170    98   165    1
   171    99   166    1
   172   104   167    1
