@<TRIPOS>MOLECULE
3QMK_LIGAND_1_uncharged.pdb
 105 108 0 0 0
SMALL
GASTEIGER

@<TRIPOS>ATOM
      1  O4        25.1170  -37.9180   33.5220 O.3     2  SGN2       -0.3401
      2  O61       22.7060  -41.8060   33.7520 O.2     3  IDS3       -0.2480
      3  O1S       22.9910  -33.1820   31.0080 O.2     1  IDS1       -0.3452
      4  O5S       26.8360  -37.4210   28.5300 O.2     2  SGN2       -0.3452
      5  C3        21.7530  -46.9050   34.5270 C.3     4  SGN4        0.1055
      6  C1        26.9380  -41.6640   33.0370 C.3     2  SGN2        0.1795
      7  C4        25.5220  -43.5780   33.3080 C.3     3  IDS3        0.1267
      8  O6S       25.1020  -39.0430   27.9440 O.2     2  SGN2       -0.3452
      9  C2        20.4240  -47.3900   35.1100 C.3     4  SGN4        0.1079
     10  O3S       17.6340  -48.3790   35.6530 O.3     4  SGN4       -0.0534
     11  C1        25.1780  -36.6520   32.9220 C.3     1  IDS1        0.1915
     12  C5        26.6010  -35.8270   34.6600 C.3     1  IDS1        0.1859
     13  O6        25.8760  -38.8390   30.2040 O.3     2  SGN2       -0.2520
     14  O1S       17.7930  -46.1660   34.6090 O.3     4  SGN4       -0.0534
     15  O2S       30.4090  -42.4610   35.8900 O.3     2  SGN2       -0.0534
     16  C6        23.6210  -47.0250   37.8880 C.3     4  SGN4        0.1035
     17  O3        21.5090  -45.8060   33.6440 O.3     4  SGN4       -0.3874
     18  C1        24.4610  -44.8780   35.6630 C.3     3  IDS3        0.1915
     19  O2        24.0670  -34.5180   32.6720 O.3     1  IDS1       -0.2435
     20  O5        26.3220  -41.0080   31.9150 O.3     2  SGN2       -0.3413
     21  C3        24.1120  -35.4860   34.8770 C.3     1  IDS1        0.1170
     22  C6        27.9700  -35.1810   34.9010 C.2     1  IDS1        0.3367
     23  O62       28.2210  -34.7360   36.0390 O.3     1  IDS1       -0.4788
     24  O4        25.9610  -42.3020   33.7830 O.3     3  IDS3       -0.3406
     25  S1        18.0000  -47.6380   34.4010 S.3     4  SGN4        0.0767
     26  O4S       25.1740  -46.4690   40.0060 O.2     4  SGN4       -0.3452
     27  C5        25.3710  -39.9950   32.2830 C.3     2  SGN2        0.1158
     28  C2        25.9770  -44.7930   35.4640 C.3     3  IDS3        0.1644
     29  O6S       25.1720  -48.8430   40.6260 O.2     4  SGN4       -0.3452
     30  O5S       23.2410  -47.4240   41.1570 O.3     4  SGN4       -0.2682
     31  N         19.5650  -47.9150   34.0390 N.3     4  SGN4       -0.1775
     32  O3S       29.7200  -42.8060   33.5650 O.3     2  SGN2       -0.0534
     33  C4        22.6480  -46.4400   35.6770 C.3     4  SGN4        0.1176
     34  S         27.0020  -43.9270   37.4270 S.3     3  IDS3       -0.0004
     35  O62       23.1000  -42.6130   31.7310 O.3     3  IDS3       -0.4788
     36  S2        25.5920  -38.1070   29.0090 S.3     2  SGN2       -0.0008
     37  C5        22.7820  -47.5490   36.7230 C.3     4  SGN4        0.1158
     38  O6        23.7460  -48.0320   38.8930 O.3     4  SGN4       -0.2520
     39  O1S       30.6780  -40.6540   34.2690 O.3     2  SGN2       -0.0534
     40  C1        20.6440  -48.4560   36.1850 C.3     4  SGN4        0.1762
     41  C4        25.4950  -34.9210   35.2100 C.3     1  IDS1        0.1202
     42  O4        25.6260  -33.5990   34.6780 O.3     1  IDS1       -0.3860
     43  O3        26.0300  -45.9450   33.3320 O.3     3  IDS3       -0.3863
     44  C3        26.7480  -39.5100   34.3340 C.3     2  SGN2        0.1055
     45  C5        24.0330  -43.7770   33.5940 C.3     3  IDS3        0.1863
     46  O1        21.2590  -49.6180   35.6220 O.3     4  SGN4       -0.3656
     47  C6        23.2160  -42.6380   32.9790 C.2     3  IDS3        0.3367
     48  O1S       28.3510  -44.5600   37.2520 O.2     3  IDS3       -0.3452
     49  O4S       24.5370  -37.0790   29.2960 O.3     2  SGN2       -0.2682
     50  O4        23.9380  -46.0760   35.1750 O.3     4  SGN4       -0.3401
     51  C4        26.0650  -38.9060   33.1060 C.3     2  SGN2        0.1176
     52  O61       28.7840  -35.1540   33.9500 O.2     1  IDS1       -0.2480
     53  O3        23.8680  -36.6910   35.6100 O.3     1  IDS1       -0.3863
     54  S2        24.3250  -47.6970   40.1560 S.3     4  SGN4       -0.0008
     55  O5        23.8080  -43.7760   35.0120 O.3     3  IDS3       -0.3314
     56  O5        26.4350  -36.0330   33.2470 O.3     1  IDS1       -0.3314
     57  O3S       27.1360  -42.6530   38.2080 O.3     3  IDS3       -0.2682
     58  C6        24.8130  -39.3720   31.0000 C.3     2  SGN2        0.1035
     59  O2S       26.0990  -44.8520   38.1870 O.2     3  IDS3       -0.3452
     60  O2S       17.1410  -48.1060   33.2630 O.3     4  SGN4       -0.0534
     61  O2        26.4540  -43.6240   36.1400 O.3     3  IDS3       -0.2435
     62  S         22.7910  -34.1480   32.1380 S.3     1  IDS1       -0.0004
     63  C3        26.3210  -44.7010   33.9760 C.3     3  IDS3        0.1174
     64  O3        27.5100  -38.5000   35.0010 O.3     2  SGN2       -0.3874
     65  O2S       21.9530  -33.5010   33.2000 O.2     1  IDS1       -0.3452
     66  O5        21.4800  -47.9080   37.2170 O.3     4  SGN4       -0.3416
     67  O3S       22.0840  -35.3660   31.6250 O.3     1  IDS1       -0.2682
     68  N         28.3170  -41.2640   35.0490 N.3     2  SGN2       -0.1775
     69  C2        24.0140  -35.7640   33.3760 C.3     1  IDS1        0.1644
     70  C2        27.6870  -40.6300   33.8810 C.3     2  SGN2        0.1081
     71  S1        29.8100  -41.8060   34.6800 S.3     2  SGN2        0.0767
     72  H         22.2290  -47.6970   33.9860 H       4  SGN4        0.0638
     73  H         27.6410  -42.3960   32.6990 H       2  SGN2        0.0927
     74  H         25.6830  -43.6100   32.2510 H       3  IDS3        0.0656
     75  H         19.9390  -46.5550   35.5710 H       4  SGN4        0.0554
     76  H         25.0990  -36.7710   31.8620 H       1  IDS1        0.0939
     77  H         26.5410  -36.7680   35.1650 H       1  IDS1        0.0741
     78  H         23.1450  -46.1630   38.3070 H       4  SGN4        0.0610
     79  H         24.5950  -46.7640   37.5300 H       4  SGN4        0.0610
     80  H         21.0780  -45.0880   34.1330 H       4  SGN4        0.2100
     81  H         24.2790  -44.8370   36.7170 H       3  IDS3        0.0939
     82  H         23.3730  -34.7630   35.1550 H       1  IDS1        0.0649
     83  H         27.5730  -34.7830   36.7140 H       1  IDS1        0.2951
     84  H         24.5850  -40.4280   32.8660 H       2  SGN2        0.0648
     85  H         26.4400  -45.6720   35.8610 H       3  IDS3        0.0698
     86  H         19.7180  -48.9190   33.9440 H       4  SGN4        0.1487
     87  H         22.2020  -45.5850   36.1400 H       4  SGN4        0.0650
     88  H         23.5120  -43.2730   31.2090 H       3  IDS3        0.2951
     89  H         23.2470  -48.4050   36.2810 H       4  SGN4        0.0648
     90  H         19.7000  -48.7450   36.5960 H       4  SGN4        0.0925
     91  H         25.5960  -34.8800   36.2740 H       1  IDS1        0.0652
     92  H         25.5350  -33.6290   33.7130 H       1  IDS1        0.2100
     93  H         26.2500  -45.8800   32.3890 H       3  IDS3        0.2100
     94  H         26.0090  -39.9000   35.0020 H       2  SGN2        0.0638
     95  H         23.7310  -44.7110   33.1680 H       3  IDS3        0.0742
     96  H         22.1190  -49.3770   35.2430 H       4  SGN4        0.2125
     97  H         26.8080  -38.4450   32.4890 H       2  SGN2        0.0650
     98  H         24.5310  -37.3560   35.3680 H       1  IDS1        0.2100
     99  H         24.2940  -40.1220   30.4400 H       2  SGN2        0.0610
    100  H         24.1420  -38.5800   31.2610 H       2  SGN2        0.0610
    101  H         27.3650  -44.4850   33.8810 H       3  IDS3        0.0649
    102  H         28.1800  -38.1470   34.3950 H       2  SGN2        0.2100
    103  H         27.7420  -42.0500   35.3540 H       2  SGN2        0.1487
    104  H         23.0940  -36.2690   33.1690 H       1  IDS1        0.0698
    105  H         28.4540  -40.2040   33.2690 H       2  SGN2        0.0554
@<TRIPOS>BOND
     1     1    51    1
     2     1    11    1
     3     2    47    2
     4     3    62    2
     5     4    36    2
     6     5     9    1
     7     5    33    1
     8     5    17    1
     9     5    72    1
    10     6    24    1
    11     6    70    1
    12     6    20    1
    13     6    73    1
    14     7    63    1
    15     7    45    1
    16     7    24    1
    17     7    74    1
    18     8    36    2
    19     9    40    1
    20     9    31    1
    21     9    75    1
    22    10    25    1
    23    11    69    1
    24    11    56    1
    25    11    76    1
    26    12    41    1
    27    12    22    1
    28    12    56    1
    29    12    77    1
    30    13    58    1
    31    13    36    1
    32    14    25    1
    33    15    71    1
    34    16    37    1
    35    16    38    1
    36    16    78    1
    37    16    79    1
    38    17    80    1
    39    18    50    1
    40    18    28    1
    41    18    55    1
    42    18    81    1
    43    19    69    1
    44    19    62    1
    45    20    27    1
    46    21    69    1
    47    21    41    1
    48    21    53    1
    49    21    82    1
    50    22    52    2
    51    22    23    1
    52    23    83    1
    53    25    31    1
    54    25    60    1
    55    26    54    2
    56    27    51    1
    57    27    58    1
    58    27    84    1
    59    28    63    1
    60    28    61    1
    61    28    85    1
    62    29    54    2
    63    30    54    1
    64    31    86    1
    65    32    71    1
    66    33    37    1
    67    33    50    1
    68    33    87    1
    69    34    61    1
    70    34    48    2
    71    34    59    2
    72    34    57    1
    73    35    47    1
    74    35    88    1
    75    36    49    1
    76    37    66    1
    77    37    89    1
    78    38    54    1
    79    39    71    1
    80    40    46    1
    81    40    66    1
    82    40    90    1
    83    41    42    1
    84    41    91    1
    85    42    92    1
    86    43    63    1
    87    43    93    1
    88    44    70    1
    89    44    51    1
    90    44    64    1
    91    44    94    1
    92    45    47    1
    93    45    55    1
    94    45    95    1
    95    46    96    1
    96    51    97    1
    97    53    98    1
    98    58    99    1
    99    58   100    1
   100    62    65    2
   101    62    67    1
   102    63   101    1
   103    64   102    1
   104    68    70    1
   105    68    71    1
   106    68   103    1
   107    69   104    1
   108    70   105    1
