@<TRIPOS>MOLECULE
3QMK_LIGAND_1.pdb
 115 118 0 0 0
SMALL
GASTEIGER

@<TRIPOS>ATOM
      1  O4        25.1170  -37.9180   33.5220 O.3     2  SGN2       -0.3401
      2  O61       22.7060  -41.8060   33.7520 O.2     3  IDS3       -0.2480
      3  O1S       22.9910  -33.1820   31.0080 O.2     1  IDS1       -0.1181
      4  O5S       26.8360  -37.4210   28.5300 O.2     2  SGN2       -0.1181
      5  C3        21.7530  -46.9050   34.5270 C.3     4  SGN4        0.1055
      6  C1        26.9380  -41.6640   33.0370 C.3     2  SGN2        0.1795
      7  C4        25.5220  -43.5780   33.3080 C.3     3  IDS3        0.1267
      8  O6S       25.1020  -39.0430   27.9440 O.2     2  SGN2       -0.1181
      9  C2        20.4240  -47.3900   35.1100 C.3     4  SGN4        0.1076
     10  O3S       17.6340  -48.3790   35.6530 O.3     4  SGN4       -0.2626
     11  C1        25.1780  -36.6520   32.9220 C.3     1  IDS1        0.1916
     12  C5        26.6010  -35.8270   34.6600 C.3     1  IDS1        0.1859
     13  O6        25.8760  -38.8390   30.2040 O.3     2  SGN2       -0.2131
     14  O1S       17.7930  -46.1660   34.6090 O.3     4  SGN4       -0.2626
     15  O2S       30.4090  -42.4610   35.8900 O.3     2  SGN2       -0.2626
     16  C6        23.6210  -47.0250   37.8880 C.3     4  SGN4        0.1076
     17  O3        21.5090  -45.8060   33.6440 O.3     4  SGN4       -0.3874
     18  C1        24.4610  -44.8780   35.6630 C.3     3  IDS3        0.1916
     19  O2        24.0670  -34.5180   32.6720 O.3     1  IDS1       -0.2047
     20  O5        26.3220  -41.0080   31.9150 O.3     2  SGN2       -0.3413
     21  C3        24.1120  -35.4860   34.8770 C.3     1  IDS1        0.1172
     22  C6        27.9700  -35.1810   34.9010 C.2     1  IDS1        0.3367
     23  O62       28.2210  -34.7360   36.0390 O.3     1  IDS1       -0.4788
     24  O4        25.9610  -42.3020   33.7830 O.3     3  IDS3       -0.3406
     25  S1        18.0000  -47.6380   34.4010 S.3     4  SGN4       -0.0198
     26  O4S       25.1740  -46.4690   40.0060 O.2     4  SGN4       -0.1181
     27  C5        25.3710  -39.9950   32.2830 C.3     2  SGN2        0.1159
     28  C2        25.9770  -44.7930   35.4640 C.3     3  IDS3        0.1684
     29  O6S       25.1720  -48.8430   40.6260 O.2     4  SGN4       -0.1181
     30  O5S       23.2410  -47.4240   41.1570 O.3     4  SGN4       -0.2311
     31  N         19.5650  -47.9150   34.0390 N.3     4  SGN4       -0.1845
     32  O3S       29.7200  -42.8060   33.5650 O.3     2  SGN2       -0.2626
     33  C4        22.6480  -46.4400   35.6770 C.3     4  SGN4        0.1176
     34  S         27.0020  -43.9270   37.4270 S.O2    3  IDS3        0.2080
     35  O62       23.1000  -42.6130   31.7310 O.3     3  IDS3       -0.4788
     36  S2        25.5920  -38.1070   29.0090 S.O2    2  SGN2        0.2076
     37  C5        22.7820  -47.5490   36.7230 C.3     4  SGN4        0.1159
     38  O6        23.7460  -48.0320   38.8930 O.3     4  SGN4       -0.2131
     39  O1S       30.6780  -40.6540   34.2690 O.3     2  SGN2       -0.2626
     40  C1        20.6440  -48.4560   36.1850 C.3     4  SGN4        0.1762
     41  C4        25.4950  -34.9210   35.2100 C.3     1  IDS1        0.1202
     42  O4        25.6260  -33.5990   34.6780 O.3     1  IDS1       -0.3860
     43  O3        26.0300  -45.9450   33.3320 O.3     3  IDS3       -0.3863
     44  C3        26.7480  -39.5100   34.3340 C.3     2  SGN2        0.1055
     45  C5        24.0330  -43.7770   33.5940 C.3     3  IDS3        0.1863
     46  O1        21.2590  -49.6180   35.6220 O.3     4  SGN4       -0.3656
     47  C6        23.2160  -42.6380   32.9790 C.2     3  IDS3        0.3367
     48  O1S       28.3510  -44.5600   37.2520 O.2     3  IDS3       -0.1181
     49  O4S       24.5370  -37.0790   29.2960 O.3     2  SGN2       -0.2311
     50  O4        23.9380  -46.0760   35.1750 O.3     4  SGN4       -0.3401
     51  C4        26.0650  -38.9060   33.1060 C.3     2  SGN2        0.1176
     52  O61       28.7840  -35.1540   33.9500 O.2     1  IDS1       -0.2480
     53  O3        23.8680  -36.6910   35.6100 O.3     1  IDS1       -0.3863
     54  S2        24.3250  -47.6970   40.1560 S.O2    4  SGN4        0.2076
     55  O5        23.8080  -43.7760   35.0120 O.3     3  IDS3       -0.3314
     56  O5        26.4350  -36.0330   33.2470 O.3     1  IDS1       -0.3314
     57  O3S       27.1360  -42.6530   38.2080 O.3     3  IDS3       -0.2311
     58  C6        24.8130  -39.3720   31.0000 C.3     2  SGN2        0.1076
     59  O2S       26.0990  -44.8520   38.1870 O.2     3  IDS3       -0.1181
     60  O2S       17.1410  -48.1060   33.2630 O.3     4  SGN4       -0.2626
     61  O2        26.4540  -43.6240   36.1400 O.3     3  IDS3       -0.2047
     62  S         22.7910  -34.1480   32.1380 S.O2    1  IDS1        0.2080
     63  C3        26.3210  -44.7010   33.9760 C.3     3  IDS3        0.1176
     64  O3        27.5100  -38.5000   35.0010 O.3     2  SGN2       -0.3874
     65  O2S       21.9530  -33.5010   33.2000 O.2     1  IDS1       -0.1181
     66  O5        21.4800  -47.9080   37.2170 O.3     4  SGN4       -0.3416
     67  O3S       22.0840  -35.3660   31.6250 O.3     1  IDS1       -0.2311
     68  N         28.3170  -41.2640   35.0490 N.3     2  SGN2       -0.1845
     69  C2        24.0140  -35.7640   33.3760 C.3     1  IDS1        0.1684
     70  C2        27.6870  -40.6300   33.8810 C.3     2  SGN2        0.1078
     71  S1        29.8100  -41.8060   34.6800 S.3     2  SGN2       -0.0198
     72 H          22.2288  -47.6965   33.9865 H       4  SGN4        0.0638
     73 H          27.6411  -42.3962   32.6987 H       2  SGN2        0.0927
     74 H          25.6827  -43.6097   32.2506 H       3  IDS3        0.0656
     75 H          19.9392  -46.5550   35.5711 H       4  SGN4        0.0554
     76 H          18.1920  -48.0727   36.3849 H       4  SGN4        0.2439
     77 H          25.0987  -36.7713   31.8616 H       1  IDS1        0.0939
     78 H          26.5408  -36.7683   35.1652 H       1  IDS1        0.0741
     79 H          18.3478  -45.8622   35.3444 H       4  SGN4        0.2439
     80 H          31.2977  -42.7853   35.6755 H       2  SGN2        0.2439
     81 H          23.1454  -46.1631   38.3074 H       4  SGN4        0.0611
     82 H          24.5949  -46.7643   37.5296 H       4  SGN4        0.0611
     83 H          21.0776  -45.0879   34.1331 H       4  SGN4        0.2100
     84 H          24.2795  -44.8372   36.7167 H       3  IDS3        0.0939
     85 H          23.3733  -34.7634   35.1548 H       1  IDS1        0.0649
     86 H          27.5726  -34.7827   36.7138 H       1  IDS1        0.2951
     87 H          24.5849  -40.4278   32.8657 H       2  SGN2        0.0648
     88 H          26.4398  -45.6723   35.8609 H       3  IDS3        0.0699
     89 H          23.6398  -47.1973   42.0117 H       4  SGN4        0.2469
     90 H          19.7180  -48.9189   33.9436 H       4  SGN4        0.1485
     91 H          30.6087  -43.1275   33.3465 H       2  SGN2        0.2439
     92 H          22.2020  -45.5846   36.1399 H       4  SGN4        0.0650
     93 H          23.5119  -43.2731   31.2089 H       3  IDS3        0.2951
     94 H          23.2468  -48.4054   36.2809 H       4  SGN4        0.0648
     95 H          31.5652  -40.9796   34.0502 H       2  SGN2        0.2439
     96 H          19.6995  -48.7451   36.5963 H       4  SGN4        0.0925
     97 H          25.5960  -34.8797   36.2744 H       1  IDS1        0.0652
     98 H          25.5355  -33.6285   33.7127 H       1  IDS1        0.2100
     99 H          26.2501  -45.8804   32.3895 H       3  IDS3        0.2100
    100 H          26.0088  -39.8999   35.0022 H       2  SGN2        0.0638
    101 H          23.7307  -44.7109   33.1683 H       3  IDS3        0.0742
    102 H          22.1187  -49.3772   35.2427 H       4  SGN4        0.2125
    103 H          24.3424  -36.5808   28.4868 H       2  SGN2        0.2469
    104 H          26.8075  -38.4447   32.4889 H       2  SGN2        0.0650
    105 H          24.5310  -37.3564   35.3681 H       1  IDS1        0.2100
    106 H          27.7179  -42.0409   37.7308 H       3  IDS3        0.2469
    107 H          24.2944  -40.1219   30.4400 H       2  SGN2        0.0611
    108 H          24.1423  -38.5800   31.2606 H       2  SGN2        0.0611
    109 H          16.2083  -47.9432   33.4738 H       4  SGN4        0.2439
    110 H          27.3647  -44.4852   33.8812 H       3  IDS3        0.0649
    111 H          28.1799  -38.1471   34.3947 H       2  SGN2        0.2100
    112 H          22.6233  -35.7874   30.9376 H       1  IDS1        0.2469
    113 H          27.7421  -42.0495   35.3536 H       2  SGN2        0.1485
    114 H          23.0938  -36.2693   33.1691 H       1  IDS1        0.0699
    115 H          28.4540  -40.2040   33.2685 H       2  SGN2        0.0554
@<TRIPOS>BOND
     1     1    51    1
     2     1    11    1
     3     2    47    2
     4     3    62    2
     5     4    36    2
     6     5     9    1
     7     5    33    1
     8     5    17    1
     9     6    24    1
    10     6    70    1
    11     6    20    1
    12     7    63    1
    13     7    45    1
    14     7    24    1
    15     8    36    2
    16     9    40    1
    17     9    31    1
    18    10    25    1
    19    11    69    1
    20    11    56    1
    21    12    41    1
    22    12    22    1
    23    12    56    1
    24    13    58    1
    25    13    36    1
    26    14    25    1
    27    15    71    1
    28    16    37    1
    29    16    38    1
    30    18    50    1
    31    18    28    1
    32    18    55    1
    33    19    69    1
    34    19    62    1
    35    20    27    1
    36    21    69    1
    37    21    41    1
    38    21    53    1
    39    22    52    2
    40    22    23    1
    41    25    31    1
    42    25    60    1
    43    26    54    2
    44    27    51    1
    45    27    58    1
    46    28    63    1
    47    28    61    1
    48    29    54    2
    49    30    54    1
    50    32    71    1
    51    33    37    1
    52    33    50    1
    53    34    61    1
    54    34    48    2
    55    34    59    2
    56    34    57    1
    57    35    47    1
    58    36    49    1
    59    37    66    1
    60    38    54    1
    61    39    71    1
    62    40    46    1
    63    40    66    1
    64    41    42    1
    65    43    63    1
    66    44    70    1
    67    44    51    1
    68    44    64    1
    69    45    47    1
    70    45    55    1
    71    62    65    2
    72    62    67    1
    73    68    70    1
    74    68    71    1
    75     5    72    1
    76     6    73    1
    77     7    74    1
    78     9    75    1
    79    10    76    1
    80    11    77    1
    81    12    78    1
    82    14    79    1
    83    15    80    1
    84    16    81    1
    85    16    82    1
    86    17    83    1
    87    18    84    1
    88    21    85    1
    89    23    86    1
    90    27    87    1
    91    28    88    1
    92    30    89    1
    93    31    90    1
    94    32    91    1
    95    33    92    1
    96    35    93    1
    97    37    94    1
    98    39    95    1
    99    40    96    1
   100    41    97    1
   101    42    98    1
   102    43    99    1
   103    44   100    1
   104    45   101    1
   105    46   102    1
   106    49   103    1
   107    51   104    1
   108    53   105    1
   109    57   106    1
   110    58   107    1
   111    58   108    1
   112    60   109    1
   113    63   110    1
   114    64   111    1
   115    67   112    1
   116    68   113    1
   117    69   114    1
   118    70   115    1
