@<TRIPOS>MOLECULE
3UAN_LIGAND_2_uncharged.pdb
 136 140 0 0 0
SMALL
GASTEIGER

@<TRIPOS>ATOM
      1  C5        23.7350   23.8340   -1.9300 C.3     1  NGY1        0.1156
      2  C6        20.1640   21.8900   -1.3250 C.2     2  BDP2        0.3367
      3  O6A       13.9590    8.7350   -9.3330 O.3     6  BDP6       -0.3528
      4  C6        23.6170   25.2360   -1.4290 C.3     1  NGY1        0.1076
      5  C1        23.2580   22.4610   -3.7450 C.3     1  NGY1        0.1808
      6  O4S       21.7640   17.0500   -3.2570 O.2     3  SGN3       -0.3452
      7  C1        13.6200    9.8910  -10.1230 C.3     5  SGN5        0.1785
      8  O5S       21.4200   14.6630   -3.2460 O.2     3  SGN3       -0.3452
      9  O5        19.0510   20.5380   -2.9290 O.3     2  BDP2       -0.3315
     10  C1        15.5460   15.7950   -2.8060 C.3     3  SGN3        0.1795
     11  O2S       16.5060   11.4230  -12.4670 O.3     5  SGN5       -0.0534
     12  S1        13.0320   16.7240   -0.8250 S.3     3  SGN3        0.0767
     13  O6S       21.4220   15.9000   -1.1500 O.3     3  SGN3       -0.2682
     14  O5        13.6600   14.4040   -6.3940 O.3     4  IDS4       -0.3314
     15  O2S       10.2400   12.5190   -4.9630 O.2     4  IDS4       -0.3452
     16  O2        19.9930   18.8470   -5.8880 O.3     2  BDP2       -0.3841
     17  C6        15.6630   15.5870   -6.6330 C.2     4  IDS4        0.3367
     18  O62       16.9160   15.6070   -6.7740 O.3     4  IDS4       -0.4788
     19  C4        25.1670   23.4230   -1.9230 C.3     1  NGY1        0.1113
     20  C4        13.5020   11.9370   -8.0740 C.3     5  SGN5        0.1176
     21  O4        22.4650   21.5040   -3.0110 O.3     2  BDP2       -0.3403
     22  CH3       25.5160   18.7230   -5.7000 C.3     1  NGY1        0.0122
     23  O1S        9.8040   14.5220   -3.7320 O.2     4  IDS4       -0.3452
     24  O6B       20.6070   21.6070   -0.1820 O.3     2  BDP2       -0.4788
     25  O5        16.9440   15.6590   -2.9420 O.3     3  SGN3       -0.3413
     26  O1S       15.7320    9.1260  -12.5410 O.3     5  SGN5       -0.0534
     27  O5S        8.3240   11.2700   -9.5210 O.2     5  SGN5       -0.3452
     28  C3        15.8720   18.3070   -2.9590 C.3     3  SGN3        0.1055
     29  O6        19.5810   16.1400   -2.7050 O.3     3  SGN3       -0.2520
     30  O3        15.4520   12.9300   -9.0150 O.3     5  SGN5       -0.3874
     31  S2         8.9450   12.3160   -8.7130 S.3     5  SGN5       -0.0008
     32  O6        10.4880   12.0720   -8.7630 O.3     5  SGN5       -0.2520
     33  O3S       17.9630    9.6240  -11.7740 O.3     5  SGN5       -0.0534
     34  N         24.6700   20.6100   -4.2560 N.am    1  NGY1       -0.3053
     35  O9        23.7750   28.0120   -0.8710 O.2     1  NGY1       -0.1181
     36  C6        11.0900   11.1910   -7.8390 C.3     5  SGN5        0.1035
     37  O2        12.0200   13.8680   -4.1160 O.3     4  IDS4       -0.2435
     38  O4S        8.6890   13.6430   -9.2580 O.2     5  SGN5       -0.3452
     39  O3        21.7300   21.0410   -5.7890 O.3     2  BDP2       -0.3864
     40  S         23.9810   27.5370   -2.2210 S.O2    1  NGY1        0.2076
     41  C3        14.3200   13.2690   -3.9570 C.3     4  IDS4        0.1174
     42  S1        16.5850   10.0970  -11.8610 S.3     5  SGN5        0.0767
     43  C5        20.3010   20.8840   -2.4310 C.3     2  BDP2        0.1863
     44  O8        22.7270   27.6170   -2.9870 O.3     1  NGY1       -0.2311
     45  O5        12.4310   10.5070   -9.6880 O.3     5  SGN5       -0.3414
     46  C1        19.1060   19.4790   -3.8100 C.3     2  BDP2        0.1890
     47  O6A       19.6080   23.0030   -1.5280 O.2     2  BDP2       -0.2480
     48  C5        12.4900   10.8170   -8.3160 C.3     5  SGN5        0.1158
     49  O3        15.0400   12.0950   -4.0060 O.3     4  IDS4       -0.3863
     50  C5        17.5220   16.6200   -3.8040 C.3     3  SGN3        0.1158
     51  C3        25.2800   22.0360   -2.4520 C.3     1  NGY1        0.1065
     52  O6        24.3420   26.1110   -2.2150 O.3     1  NGY1       -0.2131
     53  O4        17.8030   18.9900   -4.1840 O.3     3  SGN3       -0.3402
     54  O6S        8.5380   12.2520   -7.3130 O.3     5  SGN5       -0.2682
     55  O3S       13.6920   17.1850    0.4040 O.3     3  SGN3       -0.0534
     56  C3        21.2100   20.4200   -4.6740 C.3     2  BDP2        0.1149
     57  O5        23.2160   23.7340   -3.2070 O.3     1  NGY1       -0.3411
     58  O3S       10.6540   12.5720   -2.6370 O.3     4  IDS4       -0.2682
     59  O3        15.7150   19.5200   -2.2430 O.3     3  SGN3       -0.3874
     60  C1        13.0840   13.1930   -6.1100 C.3     4  IDS4        0.1915
     61  C5        14.9940   14.3720   -6.0670 C.3     4  IDS4        0.1863
     62  N         16.0310   10.2480  -10.3600 N.3     5  SGN5       -0.1775
     63  C2        19.8540   19.9190   -5.0260 C.3     2  BDP2        0.1342
     64  O2S       11.6540   17.1700   -0.9240 O.3     3  SGN3       -0.0534
     65  C4        17.3430   18.0350   -3.2480 C.3     3  SGN3        0.1176
     66  C4        15.1530   14.3520   -4.5780 C.3     4  IDS4        0.1267
     67  O1S       13.1180   15.2720   -0.9970 O.3     3  SGN3       -0.0534
     68  O4        25.6500   23.4700   -0.6320 O.3     1  NGY1       -0.3865
     69  C2        24.6690   21.9710   -3.8090 C.3     1  NGY1        0.1023
     70  C6        13.1730    7.6680   -9.7260 C.3     6  BDP6        0.0395
     71  C2        14.7590   10.9090  -10.0920 C.3     5  SGN5        0.1080
     72  C2        12.9890   13.0250   -4.6270 C.3     4  IDS4        0.1644
     73  O3        26.6070   21.6720   -2.5210 O.3     1  NGY1       -0.3871
     74  C4        21.1880   21.3840   -3.5340 C.3     2  BDP2        0.1266
     75  S2        21.1210   15.9280   -2.5790 S.3     3  SGN3       -0.0008
     76  C2        15.2450   17.1580   -2.1770 C.3     3  SGN3        0.1081
     77  O4        13.7630   12.0550   -6.6860 O.3     5  SGN5       -0.3401
     78  C6        18.9920   16.2610   -3.9800 C.3     3  SGN3        0.1035
     79  O4        14.8330   15.5940   -4.0490 O.3     4  IDS4       -0.3406
     80  C3        14.8410   11.6820   -8.7690 C.3     5  SGN5        0.1055
     81  C         25.5640   20.1510   -5.2740 C.2     1  NGY1        0.2104
     82  O61       14.9700   16.5880   -6.9660 O.2     4  IDS4       -0.2480
     83  O7        25.0220   28.3050   -2.8570 O.2     1  NGY1       -0.1181
     84  O         26.3650   20.9160   -5.7950 O.2     1  NGY1       -0.2761
     85  S         10.6700   13.3430   -3.8580 S.3     4  IDS4       -0.0004
     86  N         13.8180   17.3760   -2.0490 N.3     3  SGN3       -0.1775
     87  H         23.1780   23.1840   -1.2880 H       1  NGY1        0.0648
     88  H         23.9860   25.2800   -0.4260 H       1  NGY1        0.0611
     89  H         22.5870   25.5230   -1.4650 H       1  NGY1        0.0611
     90  H         22.8400   22.5410   -4.7270 H       1  NGY1        0.0930
     91  H         13.4640    9.5470  -11.1240 H       5  SGN5        0.0927
     92  H         15.1890   15.0190   -2.1610 H       3  SGN3        0.0927
     93  H         19.1160   18.5090   -6.1270 H       2  BDP2        0.2101
     94  H         17.4270   14.8620   -6.5260 H       4  IDS4        0.2951
     95  H         25.7380   24.0870   -2.5380 H       1  NGY1        0.0646
     96  H         13.0680   12.8290   -8.4750 H       5  SGN5        0.0650
     97  H         24.7620   18.2090   -5.1410 H       1  NGY1        0.0322
     98  H         26.4660   18.2650   -5.5210 H       1  NGY1        0.0322
     99  H         25.2850   18.6700   -6.7430 H       1  NGY1        0.0322
    100  H         21.0200   20.7800   -0.0310 H       2  BDP2        0.2951
    101  H         15.3690   18.3930   -3.8990 H       3  SGN3        0.0638
    102  H         15.5110   13.4300   -8.1860 H       5  SGN5        0.2100
    103  H         24.0380   19.9730   -3.8510 H       1  NGY1        0.1492
    104  H         10.4960   10.3050   -7.7540 H       5  SGN5        0.0610
    105  H         11.1590   11.6730   -6.8860 H       5  SGN5        0.0610
    106  H         21.7450   20.4150   -6.5300 H       2  BDP2        0.2100
    107  H         14.1010   13.5940   -2.9610 H       4  IDS4        0.0649
    108  H         20.7640   20.0120   -2.0190 H       2  BDP2        0.0742
    109  H         22.0420   27.0940   -2.5420 H       1  NGY1        0.2469
    110  H         19.6040   18.6670   -3.3220 H       2  BDP2        0.0938
    111  H         12.8230    9.9700   -7.7530 H       5  SGN5        0.0648
    112  H         15.2050   11.8550   -4.9310 H       4  IDS4        0.2100
    113  H         17.0340   16.6100   -4.7560 H       3  SGN3        0.0648
    114  H         24.7650   21.3630   -1.7980 H       1  NGY1        0.0640
    115  H         21.8100   19.5900   -4.3650 H       2  BDP2        0.0648
    116  H         16.1680   19.4520   -1.3880 H       3  SGN3        0.2100
    117  H         12.1150   13.2120   -6.5620 H       4  IDS4        0.0939
    118  H         15.4430   13.4900   -6.4730 H       4  IDS4        0.0742
    119  H         16.7410   10.7630   -9.8390 H       5  SGN5        0.1487
    120  H         19.3020   20.7110   -5.4870 H       2  BDP2        0.0671
    121  H         17.9100   18.1110   -2.3440 H       3  SGN3        0.0650
    122  H         16.1760   14.1370   -4.3490 H       4  IDS4        0.0656
    123  H         25.1340   22.8690   -0.0720 H       1  NGY1        0.2100
    124  H         25.2310   22.5810   -4.4850 H       1  NGY1        0.0575
    125  H         13.4220    6.8070   -9.1410 H       6  BDP6        0.0525
    126  H         13.3470    7.4590  -10.7610 H       6  BDP6        0.0525
    127  H         12.1420    7.9120   -9.5800 H       6  BDP6        0.0525
    128  H         14.5490   11.6260  -10.8580 H       5  SGN5        0.0554
    129  H         12.7100   12.0120   -4.4230 H       4  IDS4        0.0698
    130  H         27.0780   22.2790   -3.1120 H       1  NGY1        0.2100
    131  H         20.8250   22.3210   -3.9010 H       2  BDP2        0.0655
    132  H         15.6850   17.1420   -1.2020 H       3  SGN3        0.0554
    133  H         19.0760   15.3330   -4.5050 H       3  SGN3        0.0610
    134  H         19.4900   17.0230   -4.5420 H       3  SGN3        0.0610
    135  H         15.4050   11.0590   -8.1060 H       5  SGN5        0.0638
    136  H         13.6760   18.3840   -1.9900 H       3  SGN3        0.1487
@<TRIPOS>BOND
     1     1    19    1
     2     1     4    1
     3     1    57    1
     4     1    87    1
     5     2    43    1
     6     2    47    2
     7     2    24    1
     8     3     7    1
     9     3    70    1
    10     4    52    1
    11     4    88    1
    12     4    89    1
    13     5    69    1
    14     5    57    1
    15     5    21    1
    16     5    90    1
    17     6    75    2
    18     7    71    1
    19     7    45    1
    20     7    91    1
    21     8    75    2
    22     9    46    1
    23     9    43    1
    24    10    76    1
    25    10    25    1
    26    10    79    1
    27    10    92    1
    28    11    42    1
    29    12    86    1
    30    12    67    1
    31    12    64    1
    32    12    55    1
    33    13    75    1
    34    14    60    1
    35    14    61    1
    36    15    85    2
    37    16    63    1
    38    16    93    1
    39    17    61    1
    40    17    82    2
    41    17    18    1
    42    18    94    1
    43    19    51    1
    44    19    68    1
    45    19    95    1
    46    20    80    1
    47    20    48    1
    48    20    77    1
    49    20    96    1
    50    21    74    1
    51    22    81    1
    52    22    97    1
    53    22    98    1
    54    22    99    1
    55    23    85    2
    56    24   100    1
    57    25    50    1
    58    26    42    1
    59    27    31    2
    60    28    76    1
    61    28    65    1
    62    28    59    1
    63    28   101    1
    64    29    78    1
    65    29    75    1
    66    30    80    1
    67    30   102    1
    68    31    32    1
    69    31    38    2
    70    31    54    1
    71    32    36    1
    72    33    42    1
    73    34    69    1
    74    34    81   am
    75    34   103    1
    76    35    40    2
    77    36    48    1
    78    36   104    1
    79    36   105    1
    80    37    72    1
    81    37    85    1
    82    39    56    1
    83    39   106    1
    84    40    52    1
    85    40    83    2
    86    40    44    1
    87    41    72    1
    88    41    66    1
    89    41    49    1
    90    41   107    1
    91    42    62    1
    92    43    74    1
    93    43   108    1
    94    44   109    1
    95    45    48    1
    96    46    63    1
    97    46    53    1
    98    46   110    1
    99    48   111    1
   100    49   112    1
   101    50    65    1
   102    50    78    1
   103    50   113    1
   104    51    69    1
   105    51    73    1
   106    51   114    1
   107    53    65    1
   108    56    63    1
   109    56    74    1
   110    56   115    1
   111    58    85    1
   112    59   116    1
   113    60    72    1
   114    60    77    1
   115    60   117    1
   116    61    66    1
   117    61   118    1
   118    62    71    1
   119    62   119    1
   120    63   120    1
   121    65   121    1
   122    66    79    1
   123    66   122    1
   124    68   123    1
   125    69   124    1
   126    70   125    1
   127    70   126    1
   128    70   127    1
   129    71    80    1
   130    71   128    1
   131    72   129    1
   132    73   130    1
   133    74   131    1
   134    76    86    1
   135    76   132    1
   136    78   133    1
   137    78   134    1
   138    80   135    1
   139    81    84    2
   140    86   136    1
