@<TRIPOS>MOLECULE
3UAN_LIGAND_1_uncharged.pdb
 152 157 0 0 0
SMALL
GASTEIGER

@<TRIPOS>ATOM
      1  O1S        7.3350   17.7030   53.6860 O.3     5  SGN5       -0.0534
      2  C3         6.4580   14.1690   50.6200 C.3     5  SGN5        0.1055
      3  C5         8.8160   12.0040   48.3450 C.3     4  IDS4        0.1863
      4  N          6.4020   15.9070   52.2710 N.3     5  SGN5       -0.1775
      5  S          5.2070    9.4940   45.9900 S.3     4  IDS4       -0.0004
      6  C6         3.5230   11.8660   49.6180 C.3     5  SGN5        0.1035
      7  O6         3.7300   10.7610   50.4700 O.3     5  SGN5       -0.2520
      8  O6S        3.1550    8.6410   51.5110 O.2     5  SGN5       -0.3452
      9  O6B       18.5540    8.4300   45.0620 O.2     2  BDP2       -0.2480
     10  O4         3.8970   15.7020   51.1910 O.3     6  BDP6       -0.3406
     11  C2        11.2950    9.8300   44.8010 C.3     3  SGN3        0.1081
     12  O4S       15.3640   14.9310   43.9740 O.2     3  SGN3       -0.3452
     13  C6        22.8880    9.2680   45.5670 C.3     1  NGY1        0.1076
     14  C1        15.5630   10.8400   46.8350 C.3     2  BDP2        0.1890
     15  C6        13.2460   13.1710   46.5220 C.3     3  SGN3        0.1035
     16  C2         5.8910   14.5800   51.9810 C.3     5  SGN5        0.1081
     17  C5        17.5590   10.5000   45.7510 C.3     2  BDP2        0.1863
     18  O2        15.5350   11.9140   48.9540 O.3     2  BDP2       -0.3841
     19  C3         7.7460   12.0630   46.1180 C.3     4  IDS4        0.1174
     20  C2         1.0430   17.6210   52.4470 C.3     6  BDP6        0.1068
     21  O6B        1.0400   14.4510   49.0790 O.2     6  BDP6       -0.2480
     22  O62       10.2540   10.4740   49.4810 O.2     4  IDS4       -0.2480
     23  O5        11.4480   12.1320   45.3670 O.3     3  SGN3       -0.3413
     24  C5         4.2710   13.0870   50.1440 C.3     5  SGN5        0.1158
     25  O5         7.8400   11.1170   48.7370 O.3     4  IDS4       -0.3314
     26  C4         9.0500   11.9610   46.8590 C.3     4  IDS4        0.1267
     27  O3S        4.1930    9.7420   46.9860 O.3     4  IDS4       -0.2682
     28  O5        21.5210   10.4180   47.1210 O.3     1  NGY1       -0.3411
     29  C1         4.3620   14.5800   51.9760 C.3     5  SGN5        0.1795
     30  S1         6.6540   16.4150   53.7660 S.3     5  SGN5        0.0767
     31  O5         3.8930   13.3360   51.4950 O.3     5  SGN5       -0.3413
     32  O6        13.9300   13.4910   45.3310 O.3     3  SGN3       -0.2520
     33  S1         9.5460    8.5990   43.3150 S.3     3  SGN3        0.0767
     34  O4        14.2070   10.3940   47.0480 O.3     3  SGN3       -0.3402
     35  C2        21.4020   12.7390   47.3680 C.3     1  NGY1        0.1023
     36  C6        18.2560    9.6150   44.7620 C.2     2  BDP2        0.3367
     37  O4         6.1960   12.8440   48.6650 O.3     5  SGN5       -0.3401
     38  C3        17.6170   11.6030   47.9520 C.3     2  BDP2        0.1149
     39  O6A        2.8310   15.2980   48.1640 O.3     6  BDP6       -0.4788
     40  C1        10.5200   11.0710   45.2550 C.3     3  SGN3        0.1795
     41  O4         9.7880   10.8350   46.4850 O.3     4  IDS4       -0.3406
     42  O4        19.5100   11.5410   46.5450 O.3     2  BDP2       -0.3403
     43  S2         2.6560    9.6270   50.5620 S.3     5  SGN5       -0.0008
     44  O3         2.6800   16.5190   53.6710 O.3     6  BDP6       -0.3865
     45  O2S        5.3440   16.5590   54.3940 O.3     5  SGN5       -0.0534
     46  O61       10.9740   12.5170   49.2420 O.3     4  IDS4       -0.4788
     47  C1        20.6530   11.4490   47.4270 C.3     1  NGY1        0.1808
     48  O6S       15.9140   14.5260   46.2950 O.2     3  SGN3       -0.3452
     49  O6A       18.5280   10.0550   43.6170 O.3     2  BDP2       -0.4788
     50  O2         1.0440   18.7610   53.2270 O.3     6  BDP6       -0.3869
     51  O3         7.4250   13.4000   45.9850 O.3     4  IDS4       -0.3863
     52  O3        22.6750   14.0720   45.9040 O.3     1  NGY1       -0.3871
     53  O2         6.5060   10.0450   46.4190 O.3     4  IDS4       -0.2435
     54  O1S        8.6360    9.7300   43.2950 O.3     3  SGN3       -0.0534
     55  C4         5.7870   12.9360   50.0240 C.3     5  SGN5        0.1176
     56  C4         2.5520   15.9720   51.3910 C.3     6  BDP6        0.1264
     57  O2S        5.4060    8.0470   45.8350 O.2     4  IDS4       -0.3452
     58  O3        13.1820    8.4100   45.2440 O.3     3  SGN3       -0.3874
     59  O2S       10.4600    8.6590   42.1790 O.3     3  SGN3       -0.0534
     60  N         20.5010   13.8240   47.6100 N.am    1  NGY1       -0.3053
     61  N         10.4190    8.6820   44.6500 N.3     3  SGN3       -0.1775
     62  O5S       14.0030   15.8660   45.7570 O.3     3  SGN3       -0.2682
     63  C4        18.4040   10.8040   46.9680 C.3     2  BDP2        0.1266
     64  O9        25.9390    8.2080   47.3300 O.2     1  NGY1       -0.1181
     65  O6        24.0590    9.2470   46.3010 O.3     1  NGY1       -0.2131
     66  C1         0.5800   17.9880   51.0800 C.3     6  BDP6        0.0773
     67  C         20.8950   14.9200   48.4370 C.2     1  NGY1        0.2104
     68  S         24.7990    7.9770   46.4750 S.O2    1  NGY1        0.2076
     69  C6        10.0800   11.6500   49.0630 C.2     4  IDS4        0.3367
     70  C2        16.2530   11.0410   48.1500 C.3     2  BDP2        0.1342
     71  C5         1.9560   16.4220   50.0820 C.3     6  BDP6        0.1833
     72  O3S        7.4780   15.3890   54.3970 O.3     5  SGN5       -0.0534
     73  C1         6.6050   11.5090   48.2770 C.3     4  IDS4        0.1915
     74  O3        18.2540   11.6040   49.1790 O.3     2  BDP2       -0.3864
     75  CH3       19.9360   16.0390   48.6730 C.3     1  NGY1        0.0122
     76  S2        14.8500   14.7630   45.3270 S.3     3  SGN3       -0.0008
     77  O8        23.8490    7.0510   47.0900 O.3     1  NGY1       -0.2311
     78  C4        22.8860   11.7330   45.7490 C.3     1  NGY1        0.1113
     79  O4        23.4180   11.8400   44.4840 O.3     1  NGY1       -0.3865
     80  C4        13.3240   10.6980   45.9780 C.3     3  SGN3        0.1176
     81  C3        12.4280    9.4880   45.7640 C.3     3  SGN3        0.1055
     82  C5        12.4400   11.8900   46.3470 C.3     3  SGN3        0.1158
     83  O3S        8.8480    7.3180   43.3920 O.3     3  SGN3       -0.0534
     84  O1S        4.8020   10.0980   44.7460 O.2     4  IDS4       -0.3452
     85  O5S        2.5070    9.0330   49.2390 O.3     5  SGN5       -0.2682
     86  C2         6.5730   11.3780   46.7850 C.3     4  IDS4        0.1644
     87  C6         1.9430   15.3300   49.0550 C.2     6  BDP6        0.3366
     88  O7        25.2460    7.4770   45.2010 O.2     1  NGY1       -0.1181
     89  O3         7.8430   13.9480   50.7400 O.3     5  SGN5       -0.3874
     90  O         22.0070   14.9380   48.9460 O.2     1  NGY1       -0.2761
     91  O4S        1.4150   10.2490   51.0200 O.2     5  SGN5       -0.3452
     92  C3        21.9800   12.8860   46.0040 C.3     1  NGY1        0.1065
     93  C5        22.0690   10.4870   45.8570 C.3     1  NGY1        0.1156
     94  O5         0.6560   16.8700   50.2760 O.3     6  BDP6       -0.3600
     95  C3         2.4160   17.0440   52.4210 C.3     6  BDP6        0.1123
     96  O5        16.3250    9.9460   46.1000 O.3     2  BDP2       -0.3315
     97  H          6.2570   14.9750   49.9450 H       5  SGN5        0.0638
     98  H          8.4990   12.9970   48.5880 H       4  IDS4        0.0742
     99  H          5.7420   16.5640   51.8550 H       5  SGN5        0.1487
    100  H          3.8810   11.6280   48.6380 H       5  SGN5        0.0610
    101  H          2.4770   12.0870   49.5830 H       5  SGN5        0.0610
    102  H         11.7190   10.0670   43.8480 H       3  SGN3        0.0554
    103  H         23.1320    9.2550   44.5250 H       1  NGY1        0.0611
    104  H         22.3110    8.4090   45.8390 H       1  NGY1        0.0611
    105  H         15.4840   11.7540   46.2840 H       2  BDP2        0.0938
    106  H         13.9570   13.0350   47.3100 H       3  SGN3        0.0610
    107  H         12.5770   13.9710   46.7620 H       3  SGN3        0.0610
    108  H          6.1920   13.8800   52.7320 H       5  SGN5        0.0554
    109  H         17.3900   11.4440   45.2770 H       2  BDP2        0.0742
    110  H         14.6420   11.5640   49.0940 H       2  BDP2        0.2101
    111  H          7.9020   11.5640   45.1840 H       4  IDS4        0.0649
    112  H          0.3820   16.8810   52.8480 H       6  BDP6        0.0643
    113  H          3.9980   13.9250   49.5370 H       5  SGN5        0.0648
    114  H          9.6420   12.8100   46.5870 H       4  IDS4        0.0656
    115  H          3.9720   14.6970   52.9650 H       5  SGN5        0.0927
    116  H         22.1770   12.7460   48.1060 H       1  NGY1        0.0575
    117  H         17.5390   12.5950   47.5590 H       2  BDP2        0.0648
    118  H          3.5020   15.9520   48.1470 H       6  BDP6        0.2951
    119  H          9.7700   11.3250   44.5350 H       3  SGN3        0.0927
    120  H          2.5910   17.2160   54.3400 H       6  BDP6        0.2100
    121  H         10.8470   13.3920   48.9320 H       4  IDS4        0.2951
    122  H         20.2710   11.2450   48.4060 H       1  NGY1        0.0930
    123  H         18.3080   10.9370   43.3890 H       2  BDP2        0.2951
    124  H          1.6490   19.4150   52.8430 H       6  BDP6        0.2100
    125  H          7.2970   13.7910   46.8640 H       4  IDS4        0.2100
    126  H         22.0740   14.8140   46.0720 H       1  NGY1        0.2100
    127  H          6.0680   12.0420   50.5400 H       5  SGN5        0.0650
    128  H          2.0380   15.0980   51.7340 H       6  BDP6        0.0655
    129  H         12.6020    7.6440   45.1110 H       3  SGN3        0.2100
    130  H         19.6040   13.8150   47.2040 H       1  NGY1        0.1492
    131  H          9.7730    8.6830   45.4390 H       3  SGN3        0.1487
    132  H         18.7130    9.8950   47.4400 H       2  BDP2        0.0655
    133  H          1.2040   18.7610   50.6830 H       6  BDP6        0.0587
    134  H         -0.4280   18.3430   51.1180 H       6  BDP6        0.0587
    135  H         16.3210   10.0840   48.6230 H       2  BDP2        0.0671
    136  H          2.5750   17.2150   49.7180 H       6  BDP6        0.0740
    137  H          5.8980   10.8570   48.7450 H       4  IDS4        0.0939
    138  H         18.3130   10.6950   49.5140 H       2  BDP2        0.2100
    139  H         19.0240   15.8440   48.1480 H       1  NGY1        0.0322
    140  H         20.3620   16.9540   48.3190 H       1  NGY1        0.0322
    141  H         19.7340   16.1210   49.7210 H       1  NGY1        0.0322
    142  H         23.5600    7.4050   47.9460 H       1  NGY1        0.2469
    143  H         23.6900   11.7140   46.4550 H       1  NGY1        0.0646
    144  H         22.7000   11.8590   43.8320 H       1  NGY1        0.2100
    145  H         13.8860   10.9350   45.0990 H       3  SGN3        0.0650
    146  H         12.0110    9.2050   46.7080 H       3  SGN3        0.0638
    147  H         11.9790   11.6270   47.2760 H       3  SGN3        0.0648
    148  H          5.6910   11.8770   46.4420 H       4  IDS4        0.0698
    149  H          8.0010   13.2150   51.3550 H       5  SGN5        0.2100
    150  H         21.1960   12.9000   45.2760 H       1  NGY1        0.0640
    151  H         21.2870   10.5210   45.1270 H       1  NGY1        0.0648
    152  H          3.1110   17.8170   52.1680 H       6  BDP6        0.0647
@<TRIPOS>BOND
     1     1    30    1
     2     2    16    1
     3     2    55    1
     4     2    89    1
     5     2    97    1
     6     3    26    1
     7     3    69    1
     8     3    25    1
     9     3    98    1
    10     4    16    1
    11     4    30    1
    12     4    99    1
    13     5    53    1
    14     5    84    2
    15     5    57    2
    16     5    27    1
    17     6    24    1
    18     6     7    1
    19     6   100    1
    20     6   101    1
    21     7    43    1
    22     8    43    2
    23     9    36    2
    24    10    29    1
    25    10    56    1
    26    11    40    1
    27    11    81    1
    28    11    61    1
    29    11   102    1
    30    12    76    2
    31    13    93    1
    32    13    65    1
    33    13   103    1
    34    13   104    1
    35    14    70    1
    36    14    96    1
    37    14    34    1
    38    14   105    1
    39    15    82    1
    40    15    32    1
    41    15   106    1
    42    15   107    1
    43    16    29    1
    44    16   108    1
    45    17    63    1
    46    17    36    1
    47    17    96    1
    48    17   109    1
    49    18    70    1
    50    18   110    1
    51    19    86    1
    52    19    26    1
    53    19    51    1
    54    19   111    1
    55    20    66    1
    56    20    95    1
    57    20    50    1
    58    20   112    1
    59    21    87    2
    60    22    69    2
    61    23    40    1
    62    23    82    1
    63    24    55    1
    64    24    31    1
    65    24   113    1
    66    25    73    1
    67    26    41    1
    68    26   114    1
    69    28    47    1
    70    28    93    1
    71    29    31    1
    72    29   115    1
    73    30    45    1
    74    30    72    1
    75    32    76    1
    76    33    61    1
    77    33    54    1
    78    33    59    1
    79    33    83    1
    80    34    80    1
    81    35    47    1
    82    35    92    1
    83    35    60    1
    84    35   116    1
    85    36    49    1
    86    37    73    1
    87    37    55    1
    88    38    70    1
    89    38    63    1
    90    38    74    1
    91    38   117    1
    92    39    87    1
    93    39   118    1
    94    40    41    1
    95    40   119    1
    96    42    47    1
    97    42    63    1
    98    43    91    2
    99    43    85    1
   100    44    95    1
   101    44   120    1
   102    46    69    1
   103    46   121    1
   104    47   122    1
   105    48    76    2
   106    49   123    1
   107    50   124    1
   108    51   125    1
   109    52    92    1
   110    52   126    1
   111    53    86    1
   112    55   127    1
   113    56    95    1
   114    56    71    1
   115    56   128    1
   116    58    81    1
   117    58   129    1
   118    60    67   am
   119    60   130    1
   120    61   131    1
   121    62    76    1
   122    63   132    1
   123    64    68    2
   124    65    68    1
   125    66    94    1
   126    66   133    1
   127    66   134    1
   128    67    90    2
   129    67    75    1
   130    68    88    2
   131    68    77    1
   132    70   135    1
   133    71    87    1
   134    71    94    1
   135    71   136    1
   136    73    86    1
   137    73   137    1
   138    74   138    1
   139    75   139    1
   140    75   140    1
   141    75   141    1
   142    77   142    1
   143    78    92    1
   144    78    93    1
   145    78    79    1
   146    78   143    1
   147    79   144    1
   148    80    81    1
   149    80    82    1
   150    80   145    1
   151    81   146    1
   152    82   147    1
   153    86   148    1
   154    89   149    1
   155    92   150    1
   156    93   151    1
   157    95   152    1
