@<TRIPOS>MOLECULE
3UAN_LIGAND_2.pdb
 145 149 0 0 0
SMALL
GASTEIGER

@<TRIPOS>ATOM
      1  C5        23.7350   23.8340   -1.9300 C.3     1  NGY1        0.1156
      2  C6        20.1640   21.8900   -1.3250 C.2     2  BDP2        0.3367
      3  O6A       13.9590    8.7350   -9.3330 O.3     6  BDP6       -0.3528
      4  C6        23.6170   25.2360   -1.4290 C.3     1  NGY1        0.1076
      5  C1        23.2580   22.4610   -3.7450 C.3     1  NGY1        0.1808
      6  O4S       21.7640   17.0500   -3.2570 O.2     3  SGN3       -0.1181
      7  C1        13.6200    9.8910  -10.1230 C.3     5  SGN5        0.1785
      8  O5S       21.4200   14.6630   -3.2460 O.2     3  SGN3       -0.1181
      9  O5        19.0510   20.5380   -2.9290 O.3     2  BDP2       -0.3315
     10  C1        15.5460   15.7950   -2.8060 C.3     3  SGN3        0.1795
     11  O2S       16.5060   11.4230  -12.4670 O.3     5  SGN5       -0.2626
     12  S1        13.0320   16.7240   -0.8250 S.3     3  SGN3       -0.0198
     13  O6S       21.4220   15.9000   -1.1500 O.3     3  SGN3       -0.2311
     14  O5        13.6600   14.4040   -6.3940 O.3     4  IDS4       -0.3314
     15  O2S       10.2400   12.5190   -4.9630 O.2     4  IDS4       -0.1181
     16  O2        19.9930   18.8470   -5.8880 O.3     2  BDP2       -0.3841
     17  C6        15.6630   15.5870   -6.6330 C.2     4  IDS4        0.3367
     18  O62       16.9160   15.6070   -6.7740 O.3     4  IDS4       -0.4788
     19  C4        25.1670   23.4230   -1.9230 C.3     1  NGY1        0.1113
     20  C4        13.5020   11.9370   -8.0740 C.3     5  SGN5        0.1176
     21  O4        22.4650   21.5040   -3.0110 O.3     2  BDP2       -0.3403
     22  CH3       25.5160   18.7230   -5.7000 C.3     1  NGY1        0.0122
     23  O1S        9.8040   14.5220   -3.7320 O.2     4  IDS4       -0.1181
     24  O6B       20.6070   21.6070   -0.1820 O.3     2  BDP2       -0.4788
     25  O5        16.9440   15.6590   -2.9420 O.3     3  SGN3       -0.3413
     26  O1S       15.7320    9.1260  -12.5410 O.3     5  SGN5       -0.2626
     27  O5S        8.3240   11.2700   -9.5210 O.2     5  SGN5       -0.1181
     28  C3        15.8720   18.3070   -2.9590 C.3     3  SGN3        0.1055
     29  O6        19.5810   16.1400   -2.7050 O.3     3  SGN3       -0.2131
     30  O3        15.4520   12.9300   -9.0150 O.3     5  SGN5       -0.3874
     31  S2         8.9450   12.3160   -8.7130 S.O2    5  SGN5        0.2076
     32  O6        10.4880   12.0720   -8.7630 O.3     5  SGN5       -0.2131
     33  O3S       17.9630    9.6240  -11.7740 O.3     5  SGN5       -0.2626
     34  N         24.6700   20.6100   -4.2560 N.am    1  NGY1       -0.3053
     35  O9        23.7750   28.0120   -0.8710 O.2     1  NGY1       -0.1181
     36  C6        11.0900   11.1910   -7.8390 C.3     5  SGN5        0.1076
     37  O2        12.0200   13.8680   -4.1160 O.3     4  IDS4       -0.2047
     38  O4S        8.6890   13.6430   -9.2580 O.2     5  SGN5       -0.1181
     39  O3        21.7300   21.0410   -5.7890 O.3     2  BDP2       -0.3864
     40  S         23.9810   27.5370   -2.2210 S.O2    1  NGY1        0.2076
     41  C3        14.3200   13.2690   -3.9570 C.3     4  IDS4        0.1176
     42  S1        16.5850   10.0970  -11.8610 S.3     5  SGN5       -0.0198
     43  C5        20.3010   20.8840   -2.4310 C.3     2  BDP2        0.1863
     44  O8        22.7270   27.6170   -2.9870 O.3     1  NGY1       -0.2311
     45  O5        12.4310   10.5070   -9.6880 O.3     5  SGN5       -0.3414
     46  C1        19.1060   19.4790   -3.8100 C.3     2  BDP2        0.1890
     47  O6A       19.6080   23.0030   -1.5280 O.2     2  BDP2       -0.2480
     48  C5        12.4900   10.8170   -8.3160 C.3     5  SGN5        0.1159
     49  O3        15.0400   12.0950   -4.0060 O.3     4  IDS4       -0.3863
     50  C5        17.5220   16.6200   -3.8040 C.3     3  SGN3        0.1159
     51  C3        25.2800   22.0360   -2.4520 C.3     1  NGY1        0.1065
     52  O6        24.3420   26.1110   -2.2150 O.3     1  NGY1       -0.2131
     53  O4        17.8030   18.9900   -4.1840 O.3     3  SGN3       -0.3402
     54  O6S        8.5380   12.2520   -7.3130 O.3     5  SGN5       -0.2311
     55  O3S       13.6920   17.1850    0.4040 O.3     3  SGN3       -0.2626
     56  C3        21.2100   20.4200   -4.6740 C.3     2  BDP2        0.1149
     57  O5        23.2160   23.7340   -3.2070 O.3     1  NGY1       -0.3411
     58  O3S       10.6540   12.5720   -2.6370 O.3     4  IDS4       -0.2311
     59  O3        15.7150   19.5200   -2.2430 O.3     3  SGN3       -0.3874
     60  C1        13.0840   13.1930   -6.1100 C.3     4  IDS4        0.1916
     61  C5        14.9940   14.3720   -6.0670 C.3     4  IDS4        0.1863
     62  N         16.0310   10.2480  -10.3600 N.3     5  SGN5       -0.1845
     63  C2        19.8540   19.9190   -5.0260 C.3     2  BDP2        0.1342
     64  O2S       11.6540   17.1700   -0.9240 O.3     3  SGN3       -0.2626
     65  C4        17.3430   18.0350   -3.2480 C.3     3  SGN3        0.1176
     66  C4        15.1530   14.3520   -4.5780 C.3     4  IDS4        0.1267
     67  O1S       13.1180   15.2720   -0.9970 O.3     3  SGN3       -0.2626
     68  O4        25.6500   23.4700   -0.6320 O.3     1  NGY1       -0.3865
     69  C2        24.6690   21.9710   -3.8090 C.3     1  NGY1        0.1023
     70  C6        13.1730    7.6680   -9.7260 C.3     6  BDP6        0.0395
     71  C2        14.7590   10.9090  -10.0920 C.3     5  SGN5        0.1078
     72  C2        12.9890   13.0250   -4.6270 C.3     4  IDS4        0.1684
     73  O3        26.6070   21.6720   -2.5210 O.3     1  NGY1       -0.3871
     74  C4        21.1880   21.3840   -3.5340 C.3     2  BDP2        0.1266
     75  S2        21.1210   15.9280   -2.5790 S.O2    3  SGN3        0.2076
     76  C2        15.2450   17.1580   -2.1770 C.3     3  SGN3        0.1078
     77  O4        13.7630   12.0550   -6.6860 O.3     5  SGN5       -0.3401
     78  C6        18.9920   16.2610   -3.9800 C.3     3  SGN3        0.1076
     79  O4        14.8330   15.5940   -4.0490 O.3     4  IDS4       -0.3406
     80  C3        14.8410   11.6820   -8.7690 C.3     5  SGN5        0.1055
     81  C         25.5640   20.1510   -5.2740 C.2     1  NGY1        0.2104
     82  O61       14.9700   16.5880   -6.9660 O.2     4  IDS4       -0.2480
     83  O7        25.0220   28.3050   -2.8570 O.2     1  NGY1       -0.1181
     84  O         26.3650   20.9160   -5.7950 O.2     1  NGY1       -0.2761
     85  S         10.6700   13.3430   -3.8580 S.O2    4  IDS4        0.2080
     86  N         13.8180   17.3760   -2.0490 N.3     3  SGN3       -0.1845
     87 H          23.1777   23.1845   -1.2878 H       1  NGY1        0.0648
     88 H          23.9864   25.2802   -0.4258 H       1  NGY1        0.0611
     89 H          22.5868   25.5227   -1.4651 H       1  NGY1        0.0611
     90 H          22.8400   22.5415   -4.7267 H       1  NGY1        0.0930
     91 H          13.4645    9.5472  -11.1243 H       5  SGN5        0.0927
     92 H          15.1891   15.0193   -2.1611 H       3  SGN3        0.0927
     93 H          16.8319   11.3813  -13.3797 H       5  SGN5        0.2439
     94 H          22.3747   15.7693   -1.0227 H       3  SGN3        0.2469
     95 H          19.1160   18.5086   -6.1272 H       2  BDP2        0.2101
     96 H          17.4273   14.8621   -6.5257 H       4  IDS4        0.2951
     97 H          25.7382   24.0867   -2.5379 H       1  NGY1        0.0646
     98 H          13.0677   12.8289   -8.4749 H       5  SGN5        0.0650
     99 H          24.7619   18.2093   -5.1412 H       1  NGY1        0.0322
    100 H          26.4665   18.2653   -5.5211 H       1  NGY1        0.0322
    101 H          25.2852   18.6696   -6.7434 H       1  NGY1        0.0322
    102 H          21.0202   20.7797   -0.0313 H       2  BDP2        0.2951
    103 H          16.0387    9.0095  -13.4538 H       5  SGN5        0.2439
    104 H          15.3686   18.3935   -3.8992 H       3  SGN3        0.0638
    105 H          15.5106   13.4303   -8.1861 H       5  SGN5        0.2100
    106 H          18.3270    9.5224  -12.6674 H       5  SGN5        0.2439
    107 H          24.0379   19.9729   -3.8514 H       1  NGY1        0.1492
    108 H          10.4956   10.3054   -7.7539 H       5  SGN5        0.0611
    109 H          11.1591   11.6726   -6.8860 H       5  SGN5        0.0611
    110 H          21.7447   20.4154   -6.5302 H       2  BDP2        0.2100
    111 H          14.1015   13.5944   -2.9614 H       4  IDS4        0.0649
    112 H          20.7637   20.0118   -2.0186 H       2  BDP2        0.0742
    113 H          22.0421   27.0940   -2.5416 H       1  NGY1        0.2469
    114 H          19.6037   18.6670   -3.3223 H       2  BDP2        0.0938
    115 H          12.8227    9.9701   -7.7530 H       5  SGN5        0.0648
    116 H          15.2048   11.8551   -4.9313 H       4  IDS4        0.2100
    117 H          17.0339   16.6097   -4.7561 H       3  SGN3        0.0648
    118 H          24.7653   21.3630   -1.7985 H       1  NGY1        0.0640
    119 H           8.7145   11.3639   -6.9652 H       5  SGN5        0.2469
    120 H          14.6062   16.8613    0.4210 H       3  SGN3        0.2439
    121 H          21.8101   19.5895   -4.3655 H       2  BDP2        0.0648
    122 H           9.7588   12.2330   -2.4804 H       4  IDS4        0.2469
    123 H          16.1682   19.4518   -1.3881 H       3  SGN3        0.2100
    124 H          12.1146   13.2123   -6.5625 H       4  IDS4        0.0939
    125 H          15.4433   13.4901   -6.4735 H       4  IDS4        0.0742
    126 H          16.7409   10.7631   -9.8393 H       5  SGN5        0.1485
    127 H          19.3018   20.7109   -5.4873 H       2  BDP2        0.0671
    128 H          11.2659   16.8402   -1.7495 H       3  SGN3        0.2439
    129 H          17.9095   18.1113   -2.3435 H       3  SGN3        0.0650
    130 H          16.1761   14.1375   -4.3495 H       4  IDS4        0.0656
    131 H          12.6700   15.0166   -1.8186 H       3  SGN3        0.2439
    132 H          25.1342   22.8692   -0.0717 H       1  NGY1        0.2100
    133 H          25.2307   22.5809   -4.4854 H       1  NGY1        0.0575
    134 H          13.4220    6.8072   -9.1413 H       6  BDP6        0.0525
    135 H          13.3471    7.4588  -10.7608 H       6  BDP6        0.0525
    136 H          12.1415    7.9121   -9.5801 H       6  BDP6        0.0525
    137 H          14.5492   11.6258  -10.8582 H       5  SGN5        0.0554
    138 H          12.7095   12.0125   -4.4228 H       4  IDS4        0.0699
    139 H          27.0785   22.2792   -3.1125 H       1  NGY1        0.2100
    140 H          20.8247   22.3213   -3.9005 H       2  BDP2        0.0655
    141 H          15.6849   17.1420   -1.2018 H       3  SGN3        0.0554
    142 H          19.0760   15.3327   -4.5055 H       3  SGN3        0.0611
    143 H          19.4898   17.0235   -4.5419 H       3  SGN3        0.0611
    144 H          15.4050   11.0592   -8.1064 H       5  SGN5        0.0638
    145 H          13.6759   18.3843   -1.9898 H       3  SGN3        0.1485
@<TRIPOS>BOND
     1     1    19    1
     2     1     4    1
     3     1    57    1
     4     2    43    1
     5     2    47    2
     6     2    24    1
     7     3     7    1
     8     3    70    1
     9     4    52    1
    10     5    69    1
    11     5    57    1
    12     5    21    1
    13     6    75    2
    14     7    71    1
    15     7    45    1
    16     8    75    2
    17     9    46    1
    18     9    43    1
    19    10    76    1
    20    10    25    1
    21    10    79    1
    22    11    42    1
    23    12    86    1
    24    12    67    1
    25    12    64    1
    26    12    55    1
    27    13    75    1
    28    14    60    1
    29    14    61    1
    30    15    85    2
    31    16    63    1
    32    17    61    1
    33    17    82    2
    34    17    18    1
    35    19    51    1
    36    19    68    1
    37    20    80    1
    38    20    48    1
    39    20    77    1
    40    21    74    1
    41    22    81    1
    42    23    85    2
    43    25    50    1
    44    26    42    1
    45    27    31    2
    46    28    76    1
    47    28    65    1
    48    28    59    1
    49    29    78    1
    50    29    75    1
    51    30    80    1
    52    31    32    1
    53    31    38    2
    54    31    54    1
    55    32    36    1
    56    33    42    1
    57    34    69    1
    58    34    81   am
    59    35    40    2
    60    36    48    1
    61    37    72    1
    62    37    85    1
    63    39    56    1
    64    40    52    1
    65    40    83    2
    66    40    44    1
    67    41    72    1
    68    41    66    1
    69    41    49    1
    70    42    62    1
    71    43    74    1
    72    45    48    1
    73    46    63    1
    74    46    53    1
    75    50    65    1
    76    50    78    1
    77    51    69    1
    78    51    73    1
    79    53    65    1
    80    56    63    1
    81    56    74    1
    82    58    85    1
    83    60    72    1
    84    60    77    1
    85    61    66    1
    86    62    71    1
    87    66    79    1
    88    71    80    1
    89    76    86    1
    90    81    84    2
    91     1    87    1
    92     4    88    1
    93     4    89    1
    94     5    90    1
    95     7    91    1
    96    10    92    1
    97    11    93    1
    98    13    94    1
    99    16    95    1
   100    18    96    1
   101    19    97    1
   102    20    98    1
   103    22    99    1
   104    22   100    1
   105    22   101    1
   106    24   102    1
   107    26   103    1
   108    28   104    1
   109    30   105    1
   110    33   106    1
   111    34   107    1
   112    36   108    1
   113    36   109    1
   114    39   110    1
   115    41   111    1
   116    43   112    1
   117    44   113    1
   118    46   114    1
   119    48   115    1
   120    49   116    1
   121    50   117    1
   122    51   118    1
   123    54   119    1
   124    55   120    1
   125    56   121    1
   126    58   122    1
   127    59   123    1
   128    60   124    1
   129    61   125    1
   130    62   126    1
   131    63   127    1
   132    64   128    1
   133    65   129    1
   134    66   130    1
   135    67   131    1
   136    68   132    1
   137    69   133    1
   138    70   134    1
   139    70   135    1
   140    70   136    1
   141    71   137    1
   142    72   138    1
   143    73   139    1
   144    74   140    1
   145    76   141    1
   146    78   142    1
   147    78   143    1
   148    80   144    1
   149    86   145    1
