@<TRIPOS>MOLECULE
3UAN_LIGAND_1.pdb
 161 166 0 0 0
SMALL
GASTEIGER

@<TRIPOS>ATOM
      1  O1S        7.3350   17.7030   53.6860 O.3     5  SGN5       -0.2626
      2  C3         6.4580   14.1690   50.6200 C.3     5  SGN5        0.1055
      3  C5         8.8160   12.0040   48.3450 C.3     4  IDS4        0.1863
      4  N          6.4020   15.9070   52.2710 N.3     5  SGN5       -0.1845
      5  S          5.2070    9.4940   45.9900 S.O2    4  IDS4        0.2080
      6  C6         3.5230   11.8660   49.6180 C.3     5  SGN5        0.1076
      7  O6         3.7300   10.7610   50.4700 O.3     5  SGN5       -0.2131
      8  O6S        3.1550    8.6410   51.5110 O.2     5  SGN5       -0.1181
      9  O6B       18.5540    8.4300   45.0620 O.2     2  BDP2       -0.2480
     10  O4         3.8970   15.7020   51.1910 O.3     6  BDP6       -0.3406
     11  C2        11.2950    9.8300   44.8010 C.3     3  SGN3        0.1078
     12  O4S       15.3640   14.9310   43.9740 O.2     3  SGN3       -0.1181
     13  C6        22.8880    9.2680   45.5670 C.3     1  NGY1        0.1076
     14  C1        15.5630   10.8400   46.8350 C.3     2  BDP2        0.1890
     15  C6        13.2460   13.1710   46.5220 C.3     3  SGN3        0.1076
     16  C2         5.8910   14.5800   51.9810 C.3     5  SGN5        0.1078
     17  C5        17.5590   10.5000   45.7510 C.3     2  BDP2        0.1863
     18  O2        15.5350   11.9140   48.9540 O.3     2  BDP2       -0.3841
     19  C3         7.7460   12.0630   46.1180 C.3     4  IDS4        0.1176
     20  C2         1.0430   17.6210   52.4470 C.3     6  BDP6        0.1068
     21  O6B        1.0400   14.4510   49.0790 O.2     6  BDP6       -0.2480
     22  O62       10.2540   10.4740   49.4810 O.2     4  IDS4       -0.2480
     23  O5        11.4480   12.1320   45.3670 O.3     3  SGN3       -0.3413
     24  C5         4.2710   13.0870   50.1440 C.3     5  SGN5        0.1159
     25  O5         7.8400   11.1170   48.7370 O.3     4  IDS4       -0.3314
     26  C4         9.0500   11.9610   46.8590 C.3     4  IDS4        0.1267
     27  O3S        4.1930    9.7420   46.9860 O.3     4  IDS4       -0.2311
     28  O5        21.5210   10.4180   47.1210 O.3     1  NGY1       -0.3411
     29  C1         4.3620   14.5800   51.9760 C.3     5  SGN5        0.1795
     30  S1         6.6540   16.4150   53.7660 S.3     5  SGN5       -0.0198
     31  O5         3.8930   13.3360   51.4950 O.3     5  SGN5       -0.3413
     32  O6        13.9300   13.4910   45.3310 O.3     3  SGN3       -0.2131
     33  S1         9.5460    8.5990   43.3150 S.3     3  SGN3       -0.0198
     34  O4        14.2070   10.3940   47.0480 O.3     3  SGN3       -0.3402
     35  C2        21.4020   12.7390   47.3680 C.3     1  NGY1        0.1023
     36  C6        18.2560    9.6150   44.7620 C.2     2  BDP2        0.3367
     37  O4         6.1960   12.8440   48.6650 O.3     5  SGN5       -0.3401
     38  C3        17.6170   11.6030   47.9520 C.3     2  BDP2        0.1149
     39  O6A        2.8310   15.2980   48.1640 O.3     6  BDP6       -0.4788
     40  C1        10.5200   11.0710   45.2550 C.3     3  SGN3        0.1795
     41  O4         9.7880   10.8350   46.4850 O.3     4  IDS4       -0.3406
     42  O4        19.5100   11.5410   46.5450 O.3     2  BDP2       -0.3403
     43  S2         2.6560    9.6270   50.5620 S.O2    5  SGN5        0.2076
     44  O3         2.6800   16.5190   53.6710 O.3     6  BDP6       -0.3865
     45  O2S        5.3440   16.5590   54.3940 O.3     5  SGN5       -0.2626
     46  O61       10.9740   12.5170   49.2420 O.3     4  IDS4       -0.4788
     47  C1        20.6530   11.4490   47.4270 C.3     1  NGY1        0.1808
     48  O6S       15.9140   14.5260   46.2950 O.2     3  SGN3       -0.1181
     49  O6A       18.5280   10.0550   43.6170 O.3     2  BDP2       -0.4788
     50  O2         1.0440   18.7610   53.2270 O.3     6  BDP6       -0.3869
     51  O3         7.4250   13.4000   45.9850 O.3     4  IDS4       -0.3863
     52  O3        22.6750   14.0720   45.9040 O.3     1  NGY1       -0.3871
     53  O2         6.5060   10.0450   46.4190 O.3     4  IDS4       -0.2047
     54  O1S        8.6360    9.7300   43.2950 O.3     3  SGN3       -0.2626
     55  C4         5.7870   12.9360   50.0240 C.3     5  SGN5        0.1176
     56  C4         2.5520   15.9720   51.3910 C.3     6  BDP6        0.1264
     57  O2S        5.4060    8.0470   45.8350 O.2     4  IDS4       -0.1181
     58  O3        13.1820    8.4100   45.2440 O.3     3  SGN3       -0.3874
     59  O2S       10.4600    8.6590   42.1790 O.3     3  SGN3       -0.2626
     60  N         20.5010   13.8240   47.6100 N.am    1  NGY1       -0.3053
     61  N         10.4190    8.6820   44.6500 N.3     3  SGN3       -0.1845
     62  O5S       14.0030   15.8660   45.7570 O.3     3  SGN3       -0.2311
     63  C4        18.4040   10.8040   46.9680 C.3     2  BDP2        0.1266
     64  O9        25.9390    8.2080   47.3300 O.2     1  NGY1       -0.1181
     65  O6        24.0590    9.2470   46.3010 O.3     1  NGY1       -0.2131
     66  C1         0.5800   17.9880   51.0800 C.3     6  BDP6        0.0773
     67  C         20.8950   14.9200   48.4370 C.2     1  NGY1        0.2104
     68  S         24.7990    7.9770   46.4750 S.O2    1  NGY1        0.2076
     69  C6        10.0800   11.6500   49.0630 C.2     4  IDS4        0.3367
     70  C2        16.2530   11.0410   48.1500 C.3     2  BDP2        0.1342
     71  C5         1.9560   16.4220   50.0820 C.3     6  BDP6        0.1833
     72  O3S        7.4780   15.3890   54.3970 O.3     5  SGN5       -0.2626
     73  C1         6.6050   11.5090   48.2770 C.3     4  IDS4        0.1916
     74  O3        18.2540   11.6040   49.1790 O.3     2  BDP2       -0.3864
     75  CH3       19.9360   16.0390   48.6730 C.3     1  NGY1        0.0122
     76  S2        14.8500   14.7630   45.3270 S.O2    3  SGN3        0.2076
     77  O8        23.8490    7.0510   47.0900 O.3     1  NGY1       -0.2311
     78  C4        22.8860   11.7330   45.7490 C.3     1  NGY1        0.1113
     79  O4        23.4180   11.8400   44.4840 O.3     1  NGY1       -0.3865
     80  C4        13.3240   10.6980   45.9780 C.3     3  SGN3        0.1176
     81  C3        12.4280    9.4880   45.7640 C.3     3  SGN3        0.1055
     82  C5        12.4400   11.8900   46.3470 C.3     3  SGN3        0.1159
     83  O3S        8.8480    7.3180   43.3920 O.3     3  SGN3       -0.2626
     84  O1S        4.8020   10.0980   44.7460 O.2     4  IDS4       -0.1181
     85  O5S        2.5070    9.0330   49.2390 O.3     5  SGN5       -0.2311
     86  C2         6.5730   11.3780   46.7850 C.3     4  IDS4        0.1684
     87  C6         1.9430   15.3300   49.0550 C.2     6  BDP6        0.3366
     88  O7        25.2460    7.4770   45.2010 O.2     1  NGY1       -0.1181
     89  O3         7.8430   13.9480   50.7400 O.3     5  SGN5       -0.3874
     90  O         22.0070   14.9380   48.9460 O.2     1  NGY1       -0.2761
     91  O4S        1.4150   10.2490   51.0200 O.2     5  SGN5       -0.1181
     92  C3        21.9800   12.8860   46.0040 C.3     1  NGY1        0.1065
     93  C5        22.0690   10.4870   45.8570 C.3     1  NGY1        0.1156
     94  O5         0.6560   16.8700   50.2760 O.3     6  BDP6       -0.3600
     95  C3         2.4160   17.0440   52.4210 C.3     6  BDP6        0.1123
     96  O5        16.3250    9.9460   46.1000 O.3     2  BDP2       -0.3315
     97 H           6.7517   18.3513   53.2613 H       5  SGN5        0.2439
     98 H           6.2574   14.9748   49.9452 H       5  SGN5        0.0638
     99 H           8.4986   12.9966   48.5879 H       4  IDS4        0.0742
    100 H           5.7416   16.5635   51.8548 H       5  SGN5        0.1485
    101 H           3.8806   11.6280   48.6380 H       5  SGN5        0.0611
    102 H           2.4767   12.0872   49.5825 H       5  SGN5        0.0611
    103 H          11.7194   10.0670   43.8478 H       3  SGN3        0.0554
    104 H          23.1324    9.2553   44.5254 H       1  NGY1        0.0611
    105 H          22.3111    8.4087   45.8385 H       1  NGY1        0.0611
    106 H          15.4841   11.7537   46.2838 H       2  BDP2        0.0938
    107 H          13.9565   13.0350   47.3104 H       3  SGN3        0.0611
    108 H          12.5769   13.9707   46.7622 H       3  SGN3        0.0611
    109 H           6.1918   13.8797   52.7320 H       5  SGN5        0.0554
    110 H          17.3904   11.4442   45.2768 H       2  BDP2        0.0742
    111 H          14.6415   11.5636   49.0943 H       2  BDP2        0.2101
    112 H           7.9022   11.5642   45.1843 H       4  IDS4        0.0649
    113 H           0.3819   16.8812   52.8477 H       6  BDP6        0.0643
    114 H           3.9977   13.9248   49.5371 H       5  SGN5        0.0648
    115 H           9.6420   12.8099   46.5875 H       4  IDS4        0.0656
    116 H           4.0645   10.6983   47.0854 H       4  IDS4        0.2469
    117 H           3.9720   14.6970   52.9655 H       5  SGN5        0.0927
    118 H          22.1769   12.7464   48.1058 H       1  NGY1        0.0575
    119 H          17.5388   12.5953   47.5594 H       2  BDP2        0.0648
    120 H           3.5017   15.9521   48.1473 H       6  BDP6        0.2951
    121 H           9.7698   11.3247   44.5355 H       3  SGN3        0.0927
    122 H           2.5915   17.2160   54.3397 H       6  BDP6        0.2100
    123 H           4.8407   17.2509   53.9370 H       5  SGN5        0.2439
    124 H          10.8468   13.3920   48.9320 H       4  IDS4        0.2951
    125 H          20.2712   11.2448   48.4055 H       1  NGY1        0.0930
    126 H          18.3078   10.9369   43.3895 H       2  BDP2        0.2951
    127 H           1.6495   19.4146   52.8435 H       6  BDP6        0.2100
    128 H           7.2972   13.7908   46.8636 H       4  IDS4        0.2100
    129 H          22.0737   14.8143   46.0722 H       1  NGY1        0.2100
    130 H           9.1453   10.5539   43.2436 H       3  SGN3        0.2439
    131 H           6.0677   12.0417   50.5401 H       5  SGN5        0.0650
    132 H           2.0381   15.0985   51.7342 H       6  BDP6        0.0655
    133 H          12.6019    7.6440   45.1113 H       3  SGN3        0.2100
    134 H          10.9015    9.5226   42.1645 H       3  SGN3        0.2439
    135 H          19.6041   13.8150   47.2041 H       1  NGY1        0.1492
    136 H           9.7729    8.6834   45.4393 H       3  SGN3        0.1485
    137 H          13.3018   16.0095   45.1023 H       3  SGN3        0.2469
    138 H          18.7129    9.8950   47.4404 H       2  BDP2        0.0655
    139 H           1.2045   18.7609   50.6830 H       6  BDP6        0.0587
    140 H          -0.4285   18.3435   51.1182 H       6  BDP6        0.0587
    141 H          16.3207   10.0835   48.6227 H       2  BDP2        0.0671
    142 H           2.5748   17.2154   49.7179 H       6  BDP6        0.0740
    143 H           8.3331   15.3360   53.9421 H       5  SGN5        0.2439
    144 H           5.8979   10.8565   48.7451 H       4  IDS4        0.0939
    145 H          18.3126   10.6954   49.5136 H       2  BDP2        0.2100
    146 H          19.0241   15.8439   48.1483 H       1  NGY1        0.0322
    147 H          20.3621   16.9545   48.3193 H       1  NGY1        0.0322
    148 H          19.7342   16.1208   49.7206 H       1  NGY1        0.0322
    149 H          23.5602    7.4050   47.9457 H       1  NGY1        0.2469
    150 H          23.6899   11.7138   46.4549 H       1  NGY1        0.0646
    151 H          22.7002   11.8586   43.8319 H       1  NGY1        0.2100
    152 H          13.8857   10.9350   45.0987 H       3  SGN3        0.0650
    153 H          12.0105    9.2046   46.7076 H       3  SGN3        0.0638
    154 H          11.9792   11.6265   47.2760 H       3  SGN3        0.0648
    155 H           8.2528    7.3197   44.1579 H       3  SGN3        0.2439
    156 H           3.3474    8.6311   48.9685 H       5  SGN5        0.2469
    157 H           5.6907   11.8770   46.4421 H       4  IDS4        0.0699
    158 H           8.0013   13.2149   51.3551 H       5  SGN5        0.2100
    159 H          21.1957   12.9000   45.2763 H       1  NGY1        0.0640
    160 H          21.2872   10.5210   45.1273 H       1  NGY1        0.0648
    161 H           3.1114   17.8169   52.1682 H       6  BDP6        0.0647
@<TRIPOS>BOND
     1     1    30    1
     2     2    16    1
     3     2    55    1
     4     2    89    1
     5     3    26    1
     6     3    69    1
     7     3    25    1
     8     4    16    1
     9     4    30    1
    10     5    53    1
    11     5    84    2
    12     5    57    2
    13     5    27    1
    14     6    24    1
    15     6     7    1
    16     7    43    1
    17     8    43    2
    18     9    36    2
    19    10    29    1
    20    10    56    1
    21    11    40    1
    22    11    81    1
    23    11    61    1
    24    12    76    2
    25    13    93    1
    26    13    65    1
    27    14    70    1
    28    14    96    1
    29    14    34    1
    30    15    82    1
    31    15    32    1
    32    16    29    1
    33    17    63    1
    34    17    36    1
    35    17    96    1
    36    18    70    1
    37    19    86    1
    38    19    26    1
    39    19    51    1
    40    20    66    1
    41    20    95    1
    42    20    50    1
    43    21    87    2
    44    22    69    2
    45    23    40    1
    46    23    82    1
    47    24    55    1
    48    24    31    1
    49    25    73    1
    50    26    41    1
    51    28    47    1
    52    28    93    1
    53    29    31    1
    54    30    45    1
    55    30    72    1
    56    32    76    1
    57    33    61    1
    58    33    54    1
    59    33    59    1
    60    33    83    1
    61    34    80    1
    62    35    47    1
    63    35    92    1
    64    35    60    1
    65    36    49    1
    66    37    73    1
    67    37    55    1
    68    38    70    1
    69    38    63    1
    70    38    74    1
    71    39    87    1
    72    40    41    1
    73    42    47    1
    74    42    63    1
    75    43    91    2
    76    43    85    1
    77    44    95    1
    78    46    69    1
    79    48    76    2
    80    52    92    1
    81    53    86    1
    82    56    95    1
    83    56    71    1
    84    58    81    1
    85    60    67   am
    86    62    76    1
    87    64    68    2
    88    65    68    1
    89    66    94    1
    90    67    90    2
    91    67    75    1
    92    68    88    2
    93    68    77    1
    94    71    87    1
    95    71    94    1
    96    73    86    1
    97    78    92    1
    98    78    93    1
    99    78    79    1
   100    80    81    1
   101    80    82    1
   102     1    97    1
   103     2    98    1
   104     3    99    1
   105     4   100    1
   106     6   101    1
   107     6   102    1
   108    11   103    1
   109    13   104    1
   110    13   105    1
   111    14   106    1
   112    15   107    1
   113    15   108    1
   114    16   109    1
   115    17   110    1
   116    18   111    1
   117    19   112    1
   118    20   113    1
   119    24   114    1
   120    26   115    1
   121    27   116    1
   122    29   117    1
   123    35   118    1
   124    38   119    1
   125    39   120    1
   126    40   121    1
   127    44   122    1
   128    45   123    1
   129    46   124    1
   130    47   125    1
   131    49   126    1
   132    50   127    1
   133    51   128    1
   134    52   129    1
   135    54   130    1
   136    55   131    1
   137    56   132    1
   138    58   133    1
   139    59   134    1
   140    60   135    1
   141    61   136    1
   142    62   137    1
   143    63   138    1
   144    66   139    1
   145    66   140    1
   146    70   141    1
   147    71   142    1
   148    72   143    1
   149    73   144    1
   150    74   145    1
   151    75   146    1
   152    75   147    1
   153    75   148    1
   154    77   149    1
   155    78   150    1
   156    79   151    1
   157    80   152    1
   158    81   153    1
   159    82   154    1
   160    83   155    1
   161    85   156    1
   162    86   157    1
   163    89   158    1
   164    92   159    1
   165    93   160    1
   166    95   161    1
