@<TRIPOS>MOLECULE
3UD7_LIGAND_1.pdb
 58 59 0 0 0
SMALL
GASTEIGER

@<TRIPOS>ATOM
      1  S1       -24.0500  -10.4580   58.0730 S.3   142  GNS142     -0.0198
      2  C3       -25.3480  -11.9680   62.2530 C.3   143  IDY143      0.1176
      3  S        -27.3340   -8.9370   60.7630 S.O2  143  IDY143      0.2080
      4  C6       -27.9050  -14.8650   62.1920 C.2   143  IDY143      0.3367
      5  C7       -27.0280  -12.0830   64.8810 C.3   143  IDY143      0.0395
      6  C4       -27.0440  -14.3380   57.8580 C.3   142  GNS142      0.1110
      7  C2       -26.3980  -10.8520   62.2610 C.3   143  IDY143      0.1684
      8  O4       -25.6140  -13.4970   60.7950 O.3   143  IDY143     -0.3406
      9  C5       -27.2380  -13.6600   62.7860 C.3   143  IDY143      0.1863
     10  C2       -25.1800  -12.8000   58.5430 C.3   142  GNS142      0.1078
     11  C6       -26.9300  -16.6990   58.7060 C.3   142  GNS142      0.0730
     12  O3       -24.6810  -11.8570   63.5160 O.3   143  IDY143     -0.3863
     13  O5       -28.1690  -12.5960   62.5430 O.3   143  IDY143     -0.3314
     14  C3       -26.6400  -12.8910   58.1170 C.3   142  GNS142      0.1051
     15  O6       -25.7620  -17.3700   58.2880 O.3   142  GNS142     -0.3924
     16  C4       -25.8750  -13.4090   62.1220 C.3   143  IDY143      0.1267
     17  O4       -28.4440  -14.4160   57.7140 O.3   142  GNS142     -0.3865
     18  OS3      -28.4030   -8.7000   61.7940 O.3   143  IDY143     -0.2311
     19  O5       -25.2100  -15.1050   59.1970 O.3   142  GNS142     -0.3414
     20  C1       -24.8680  -13.8100   59.6400 C.3   142  GNS142      0.1795
     21  O1       -27.6080  -11.2650   64.3320 O.3   143  IDY143     -0.3519
     22  O2       -26.6250  -10.2950   60.9590 O.3   143  IDY143     -0.2047
     23  C1       -27.7160  -11.2890   62.9130 C.3   143  IDY143      0.1908
     24  C5       -26.6000  -15.2410   59.0020 C.3   142  GNS142      0.1129
     25  O3       -26.8360  -12.1320   56.9450 O.3   142  GNS142     -0.3874
     26  O3S      -24.3420   -9.1060   58.5400 O.3   142  GNS142     -0.2626
     27  N        -24.8810  -11.4580   59.0050 N.3   142  GNS142     -0.1845
     28  OS2      -26.2990   -7.9050   60.8950 O.2   143  IDY143     -0.1181
     29  O1S      -22.6400  -10.7990   58.2400 O.3   142  GNS142     -0.2626
     30  O62      -28.5390  -14.7800   61.0770 O.3   143  IDY143     -0.4788
     31  O2S      -24.5050  -10.6820   56.7040 O.3   142  GNS142     -0.2626
     32  OS1      -27.9010   -8.8840   59.3810 O.2   143  IDY143     -0.1181
     33  O61      -27.8600  -15.9360   62.8810 O.2   143  IDY143     -0.2480
     34 H         -24.7393  -11.8272   61.3844 H     143  IDY143      0.0649
     35 H         -27.0580  -11.8959   65.9341 H     143  IDY143      0.0525
     36 H         -26.0112  -12.0842   64.5478 H     143  IDY143      0.0525
     37 H         -27.4720  -13.0345   64.6750 H     143  IDY143      0.0525
     38 H         -26.5649  -14.6683   56.9601 H     142  GNS142      0.0646
     39 H         -25.9845  -10.0743   62.8684 H     143  IDY143      0.0699
     40 H         -27.0219  -13.7662   63.8286 H     143  IDY143      0.0742
     41 H         -24.5683  -13.0263   57.6947 H     142  GNS142      0.0554
     42 H         -27.6661  -16.7478   57.9309 H     142  GNS142      0.0584
     43 H         -27.3118  -17.1649   59.5904 H     142  GNS142      0.0584
     44 H         -25.3190  -12.0008   64.2323 H     143  IDY143      0.2100
     45 H         -27.2481  -12.5057   58.9086 H     142  GNS142      0.0638
     46 H         -25.4159  -16.9477   57.4863 H     142  GNS142      0.2095
     47 H         -25.4634  -14.2360   62.6620 H     143  IDY143      0.0656
     48 H         -28.8704  -14.1150   58.5316 H     142  GNS142      0.2100
     49 H         -29.0894   -9.3802   61.7103 H     143  IDY143      0.2469
     50 H         -23.8236  -13.7747   59.8700 H     142  GNS142      0.0927
     51 H         -28.4322  -10.5817   62.5501 H     143  IDY143      0.0938
     52 H         -27.1242  -14.9473   59.8874 H     142  GNS142      0.0647
     53 H         -26.2815  -12.4876   56.2330 H     142  GNS142      0.2100
     54 H         -24.0235   -9.0025   59.4504 H     142  GNS142      0.2439
     55 H         -25.7753  -11.0067   59.1974 H     142  GNS142      0.1485
     56 H         -22.4855  -11.7014   57.9197 H     142  GNS142      0.2439
     57 H         -28.5461  -13.9721   60.6025 H     143  IDY143      0.2951
     58 H         -24.2910  -11.5895   56.4366 H     142  GNS142      0.2439
@<TRIPOS>BOND
     1     1    27    1
     2     1    29    1
     3     1    31    1
     4     1    26    1
     5     2     7    1
     6     2    12    1
     7     2    16    1
     8     3    22    1
     9     3    32    2
    10     3    28    2
    11     3    18    1
    12     4     9    1
    13     4    33    2
    14     4    30    1
    15     5    21    1
    16     6    14    1
    17     6    24    1
    18     6    17    1
    19     7    23    1
    20     7    22    1
    21     8    20    1
    22     8    16    1
    23     9    16    1
    24     9    13    1
    25    10    20    1
    26    10    27    1
    27    10    14    1
    28    11    24    1
    29    11    15    1
    30    13    23    1
    31    14    25    1
    32    19    20    1
    33    19    24    1
    34    21    23    1
    35     2    34    1
    36     5    35    1
    37     5    36    1
    38     5    37    1
    39     6    38    1
    40     7    39    1
    41     9    40    1
    42    10    41    1
    43    11    42    1
    44    11    43    1
    45    12    44    1
    46    14    45    1
    47    15    46    1
    48    16    47    1
    49    17    48    1
    50    18    49    1
    51    20    50    1
    52    23    51    1
    53    24    52    1
    54    25    53    1
    55    26    54    1
    56    27    55    1
    57    29    56    1
    58    30    57    1
    59    31    58    1
