@<TRIPOS>MOLECULE
3UD7_LIGAND_1_uncharged.pdb
 54 55 0 0 0
SMALL
GASTEIGER

@<TRIPOS>ATOM
      1  S1       -24.0500  -10.4580   58.0730 S.3   142  GNS142      0.0767
      2  C3       -25.3480  -11.9680   62.2530 C.3   143  IDY143      0.1174
      3  S        -27.3340   -8.9370   60.7630 S.3   143  IDY143     -0.0004
      4  C6       -27.9050  -14.8650   62.1920 C.2   143  IDY143      0.3367
      5  C7       -27.0280  -12.0830   64.8810 C.3   143  IDY143      0.0395
      6  C4       -27.0440  -14.3380   57.8580 C.3   142  GNS142      0.1110
      7  C2       -26.3980  -10.8520   62.2610 C.3   143  IDY143      0.1644
      8  O4       -25.6140  -13.4970   60.7950 O.3   143  IDY143     -0.3406
      9  C5       -27.2380  -13.6600   62.7860 C.3   143  IDY143      0.1863
     10  C2       -25.1800  -12.8000   58.5430 C.3   142  GNS142      0.1080
     11  C6       -26.9300  -16.6990   58.7060 C.3   142  GNS142      0.0730
     12  O3       -24.6810  -11.8570   63.5160 O.3   143  IDY143     -0.3863
     13  O5       -28.1690  -12.5960   62.5430 O.3   143  IDY143     -0.3314
     14  C3       -26.6400  -12.8910   58.1170 C.3   142  GNS142      0.1051
     15  O6       -25.7620  -17.3700   58.2880 O.3   142  GNS142     -0.3924
     16  C4       -25.8750  -13.4090   62.1220 C.3   143  IDY143      0.1267
     17  O4       -28.4440  -14.4160   57.7140 O.3   142  GNS142     -0.3865
     18  OS3      -28.4030   -8.7000   61.7940 O.3   143  IDY143     -0.2682
     19  O5       -25.2100  -15.1050   59.1970 O.3   142  GNS142     -0.3414
     20  C1       -24.8680  -13.8100   59.6400 C.3   142  GNS142      0.1795
     21  O1       -27.6080  -11.2650   64.3320 O.3   143  IDY143     -0.3519
     22  O2       -26.6250  -10.2950   60.9590 O.3   143  IDY143     -0.2435
     23  C1       -27.7160  -11.2890   62.9130 C.3   143  IDY143      0.1907
     24  C5       -26.6000  -15.2410   59.0020 C.3   142  GNS142      0.1129
     25  O3       -26.8360  -12.1320   56.9450 O.3   142  GNS142     -0.3874
     26  O3S      -24.3420   -9.1060   58.5400 O.3   142  GNS142     -0.0534
     27  N        -24.8810  -11.4580   59.0050 N.3   142  GNS142     -0.1775
     28  OS2      -26.2990   -7.9050   60.8950 O.2   143  IDY143     -0.3452
     29  O1S      -22.6400  -10.7990   58.2400 O.3   142  GNS142     -0.0534
     30  O62      -28.5390  -14.7800   61.0770 O.3   143  IDY143     -0.4788
     31  O2S      -24.5050  -10.6820   56.7040 O.3   142  GNS142     -0.0534
     32  OS1      -27.9010   -8.8840   59.3810 O.2   143  IDY143     -0.3452
     33  O61      -27.8600  -15.9360   62.8810 O.2   143  IDY143     -0.2480
     34  H        -24.7390  -11.8270   61.3840 H     143  IDY143      0.0649
     35  H        -27.0580  -11.8960   65.9340 H     143  IDY143      0.0525
     36  H        -26.0110  -12.0840   64.5480 H     143  IDY143      0.0525
     37  H        -27.4720  -13.0340   64.6750 H     143  IDY143      0.0525
     38  H        -26.5650  -14.6680   56.9600 H     142  GNS142      0.0646
     39  H        -25.9850  -10.0740   62.8680 H     143  IDY143      0.0698
     40  H        -27.0220  -13.7660   63.8290 H     143  IDY143      0.0742
     41  H        -24.5680  -13.0260   57.6950 H     142  GNS142      0.0554
     42  H        -27.6660  -16.7480   57.9310 H     142  GNS142      0.0584
     43  H        -27.3120  -17.1650   59.5900 H     142  GNS142      0.0584
     44  H        -25.3190  -12.0010   64.2320 H     143  IDY143      0.2100
     45  H        -27.2480  -12.5060   58.9090 H     142  GNS142      0.0638
     46  H        -25.4160  -16.9480   57.4860 H     142  GNS142      0.2095
     47  H        -25.4630  -14.2360   62.6620 H     143  IDY143      0.0656
     48  H        -28.8700  -14.1150   58.5320 H     142  GNS142      0.2100
     49  H        -23.8240  -13.7750   59.8700 H     142  GNS142      0.0927
     50  H        -28.4320  -10.5820   62.5500 H     143  IDY143      0.0938
     51  H        -27.1240  -14.9470   59.8870 H     142  GNS142      0.0647
     52  H        -26.2820  -12.4880   56.2330 H     142  GNS142      0.2100
     53  H        -25.7750  -11.0070   59.1970 H     142  GNS142      0.1487
     54  H        -28.5460  -13.9720   60.6020 H     143  IDY143      0.2951
@<TRIPOS>BOND
     1     1    27    1
     2     1    29    1
     3     1    31    1
     4     1    26    1
     5     2     7    1
     6     2    12    1
     7     2    16    1
     8     2    34    1
     9     3    22    1
    10     3    32    2
    11     3    28    2
    12     3    18    1
    13     4     9    1
    14     4    33    2
    15     4    30    1
    16     5    21    1
    17     5    35    1
    18     5    36    1
    19     5    37    1
    20     6    14    1
    21     6    24    1
    22     6    17    1
    23     6    38    1
    24     7    23    1
    25     7    22    1
    26     7    39    1
    27     8    20    1
    28     8    16    1
    29     9    16    1
    30     9    13    1
    31     9    40    1
    32    10    20    1
    33    10    27    1
    34    10    14    1
    35    10    41    1
    36    11    24    1
    37    11    15    1
    38    11    42    1
    39    11    43    1
    40    12    44    1
    41    13    23    1
    42    14    25    1
    43    14    45    1
    44    15    46    1
    45    16    47    1
    46    17    48    1
    47    19    20    1
    48    19    24    1
    49    20    49    1
    50    21    23    1
    51    23    50    1
    52    24    51    1
    53    25    52    1
    54    27    53    1
    55    30    54    1
