@<TRIPOS>MOLECULE
3UD8_LIGAND_1.pdb
 62 63 0 0 0
SMALL
GASTEIGER

@<TRIPOS>ATOM
      1  O3S       23.9620   -8.5820  -21.5410 O.3   141  GNX141     -0.2626
      2  O3        27.8300   -8.0860  -24.5420 O.3   141  GNX141     -0.2080
      3  C6        28.9100   -4.8650  -19.1450 C.2   142  IDY142      0.3367
      4  C4        28.3000   -5.8450  -23.8340 C.3   141  GNX141      0.1136
      5  O1        28.8130   -8.7190  -16.1310 O.3   142  IDY142     -0.3519
      6  OS3       29.3540  -11.1270  -18.2580 O.2   142  IDY142     -0.1181
      7  O32       28.5560  -10.0550  -24.2900 O.2   141  GNX141     -0.1181
      8  OS2       27.3490  -11.9950  -19.3410 O.2   142  IDY142     -0.1181
      9  O62       29.7190   -5.2660  -20.0310 O.3   142  IDY142     -0.4788
     10  S12       28.6590   -8.9470  -25.2450 S.O2  141  GNX141      0.2079
     11  C4        26.9170   -6.3410  -19.1330 C.3   142  IDY142      0.1267
     12  OS1       29.1890  -11.2790  -20.6680 O.3   142  IDY142     -0.2311
     13  O1S       24.7090   -9.2880  -23.7310 O.3   141  GNX141     -0.2626
     14  S1        24.9720   -9.3200  -22.2950 S.3   141  GNX141     -0.0198
     15  C2        26.5910   -7.2650  -22.6610 C.3   141  GNX141      0.1104
     16  O4        27.5350   -6.4670  -20.6080 O.3   142  IDY142     -0.3406
     17  C2        27.3910   -8.7840  -18.3950 C.3   142  IDY142      0.1684
     18  N         26.3640   -8.5660  -22.0630 N.3   141  GNX141     -0.1844
     19  O2S       25.1400  -10.6800  -21.7920 O.3   141  GNX141     -0.2626
     20  O3        25.4850   -7.5560  -17.5850 O.3   142  IDY142     -0.3863
     21  C3        27.9220   -7.2580  -23.4040 C.3   141  GNX141      0.1395
     22  O61       28.7720   -3.5920  -18.8930 O.2   142  IDY142     -0.2480
     23  C1        26.5610   -6.1840  -21.5870 C.3   141  GNX141      0.1796
     24  O5        29.0600   -6.9280  -18.0950 O.3   142  IDY142     -0.3314
     25  C3        26.3470   -7.7110  -18.7310 C.3   142  IDY142      0.1176
     26  C1        28.5390   -8.1630  -17.5960 C.3   142  IDY142      0.1908
     27  S         28.4250  -10.9820  -19.4380 S.O2  142  IDY142      0.2080
     28  O6        27.5070   -2.5580  -22.5540 O.3   141  GNX141     -0.3924
     29  C7        28.8600   -8.5230  -15.1760 C.3   142  IDY142      0.0395
     30  O22       30.0870   -8.7560  -25.5020 O.3   141  GNX141     -0.2311
     31  C5        28.1350   -5.8670  -18.3310 C.3   142  IDY142      0.1863
     32  C6        28.4470   -3.4390  -23.1280 C.3   141  GNX141      0.0730
     33  O2        27.8370   -9.5410  -19.5440 O.3   142  IDY142     -0.2047
     34  C5        28.1480   -4.8640  -22.6780 C.3   141  GNX141      0.1130
     35  O12       28.0250   -9.3910  -26.5320 O.2   141  GNX141     -0.1181
     36  O5        26.8330   -4.9310  -22.1730 O.3   141  GNX141     -0.3414
     37  O4        29.6350   -5.8330  -24.2880 O.3   141  GNX141     -0.3864
     38 H          23.8788   -7.6860  -21.9031 H     141  GNX141      0.2439
     39 H          27.6427   -5.5438  -24.6227 H     141  GNX141      0.0647
     40 H          29.8091   -6.1827  -20.2027 H     142  IDY142      0.2951
     41 H          26.0951   -5.6697  -18.9958 H     142  IDY142      0.0656
     42 H          29.5587  -12.1740  -20.6108 H     142  IDY142      0.2469
     43 H          24.6046   -8.3680  -24.0202 H     141  GNX141      0.2439
     44 H          25.8119   -7.0598  -23.3651 H     141  GNX141      0.0555
     45 H          26.9151   -9.5162  -17.7767 H     142  IDY142      0.0699
     46 H          27.0958   -9.1836  -22.4145 H     141  GNX141      0.1485
     47 H          24.3144  -11.1742  -21.9142 H     141  GNX141      0.2439
     48 H          24.8146   -6.8809  -17.7737 H     142  IDY142      0.2100
     49 H          28.6796   -7.6257  -22.7440 H     141  GNX141      0.0666
     50 H          25.5933   -6.1613  -21.1309 H     141  GNX141      0.0927
     51 H          25.8239   -8.0561  -19.5983 H     142  IDY142      0.0649
     52 H          29.4735   -8.6361  -17.8146 H     142  IDY142      0.0938
     53 H          27.6972   -1.6509  -22.8403 H     141  GNX141      0.2095
     54 H          29.1217   -9.4124  -14.6418 H     142  IDY142      0.0525
     55 H          27.9083   -8.1704  -14.8370 H     142  IDY142      0.0525
     56 H          29.6014   -7.7713  -15.0022 H     142  IDY142      0.0525
     57 H          30.5266   -8.4679  -24.6867 H     141  GNX141      0.2469
     58 H          27.7578   -5.4708  -17.4114 H     142  IDY142      0.0742
     59 H          29.4320   -3.1646  -22.8127 H     141  GNX141      0.0584
     60 H          28.3851   -3.3813  -24.1946 H     141  GNX141      0.0584
     61 H          28.8472   -5.1317  -21.9136 H     141  GNX141      0.0647
     62 H          30.2240   -6.1070  -23.5676 H     141  GNX141      0.2100
@<TRIPOS>BOND
     1     1    14    1
     2     2    21    1
     3     2    10    1
     4     3    31    1
     5     3    22    2
     6     3     9    1
     7     4    21    1
     8     4    37    1
     9     4    34    1
    10     5    26    1
    11     5    29    1
    12     6    27    2
    13     7    10    2
    14     8    27    2
    15    10    35    2
    16    10    30    1
    17    11    25    1
    18    11    16    1
    19    11    31    1
    20    12    27    1
    21    13    14    1
    22    14    18    1
    23    14    19    1
    24    15    18    1
    25    15    23    1
    26    15    21    1
    27    16    23    1
    28    17    26    1
    29    17    33    1
    30    17    25    1
    31    20    25    1
    32    23    36    1
    33    24    26    1
    34    24    31    1
    35    27    33    1
    36    28    32    1
    37    32    34    1
    38    34    36    1
    39     1    38    1
    40     4    39    1
    41     9    40    1
    42    11    41    1
    43    12    42    1
    44    13    43    1
    45    15    44    1
    46    17    45    1
    47    18    46    1
    48    19    47    1
    49    20    48    1
    50    21    49    1
    51    23    50    1
    52    25    51    1
    53    26    52    1
    54    28    53    1
    55    29    54    1
    56    29    55    1
    57    29    56    1
    58    30    57    1
    59    31    58    1
    60    32    59    1
    61    32    60    1
    62    34    61    1
    63    37    62    1
