@<TRIPOS>MOLECULE
3UD8_LIGAND_1_uncharged.pdb
 58 59 0 0 0
SMALL
GASTEIGER

@<TRIPOS>ATOM
      1  O3S       23.9620   -8.5820  -21.5410 O.3   141  GNX141     -0.0534
      2  O3        27.8300   -8.0860  -24.5420 O.3   141  GNX141     -0.2080
      3  C6        28.9100   -4.8650  -19.1450 C.2   142  IDY142      0.3367
      4  C4        28.3000   -5.8450  -23.8340 C.3   141  GNX141      0.1136
      5  O1        28.8130   -8.7190  -16.1310 O.3   142  IDY142     -0.3519
      6  OS3       29.3540  -11.1270  -18.2580 O.2   142  IDY142     -0.3452
      7  O32       28.5560  -10.0550  -24.2900 O.2   141  GNX141     -0.1181
      8  OS2       27.3490  -11.9950  -19.3410 O.2   142  IDY142     -0.3452
      9  O62       29.7190   -5.2660  -20.0310 O.3   142  IDY142     -0.4788
     10  S12       28.6590   -8.9470  -25.2450 S.O2  141  GNX141      0.2079
     11  C4        26.9170   -6.3410  -19.1330 C.3   142  IDY142      0.1267
     12  OS1       29.1890  -11.2790  -20.6680 O.3   142  IDY142     -0.2682
     13  O1S       24.7090   -9.2880  -23.7310 O.3   141  GNX141     -0.0534
     14  S1        24.9720   -9.3200  -22.2950 S.3   141  GNX141      0.0767
     15  C2        26.5910   -7.2650  -22.6610 C.3   141  GNX141      0.1107
     16  O4        27.5350   -6.4670  -20.6080 O.3   142  IDY142     -0.3406
     17  C2        27.3910   -8.7840  -18.3950 C.3   142  IDY142      0.1644
     18  N         26.3640   -8.5660  -22.0630 N.3   141  GNX141     -0.1775
     19  O2S       25.1400  -10.6800  -21.7920 O.3   141  GNX141     -0.0534
     20  O3        25.4850   -7.5560  -17.5850 O.3   142  IDY142     -0.3863
     21  C3        27.9220   -7.2580  -23.4040 C.3   141  GNX141      0.1395
     22  O61       28.7720   -3.5920  -18.8930 O.2   142  IDY142     -0.2480
     23  C1        26.5610   -6.1840  -21.5870 C.3   141  GNX141      0.1796
     24  O5        29.0600   -6.9280  -18.0950 O.3   142  IDY142     -0.3314
     25  C3        26.3470   -7.7110  -18.7310 C.3   142  IDY142      0.1174
     26  C1        28.5390   -8.1630  -17.5960 C.3   142  IDY142      0.1907
     27  S         28.4250  -10.9820  -19.4380 S.3   142  IDY142     -0.0004
     28  O6        27.5070   -2.5580  -22.5540 O.3   141  GNX141     -0.3924
     29  C7        28.8600   -8.5230  -15.1760 C.3   142  IDY142      0.0395
     30  O22       30.0870   -8.7560  -25.5020 O.3   141  GNX141     -0.2311
     31  C5        28.1350   -5.8670  -18.3310 C.3   142  IDY142      0.1863
     32  C6        28.4470   -3.4390  -23.1280 C.3   141  GNX141      0.0730
     33  O2        27.8370   -9.5410  -19.5440 O.3   142  IDY142     -0.2435
     34  C5        28.1480   -4.8640  -22.6780 C.3   141  GNX141      0.1130
     35  O12       28.0250   -9.3910  -26.5320 O.2   141  GNX141     -0.1181
     36  O5        26.8330   -4.9310  -22.1730 O.3   141  GNX141     -0.3414
     37  O4        29.6350   -5.8330  -24.2880 O.3   141  GNX141     -0.3864
     38  H         27.6430   -5.5440  -24.6230 H     141  GNX141      0.0647
     39  H         29.8090   -6.1830  -20.2030 H     142  IDY142      0.2951
     40  H         26.0950   -5.6700  -18.9960 H     142  IDY142      0.0656
     41  H         25.8120   -7.0600  -23.3650 H     141  GNX141      0.0555
     42  H         26.9150   -9.5160  -17.7770 H     142  IDY142      0.0698
     43  H         27.0960   -9.1840  -22.4150 H     141  GNX141      0.1487
     44  H         24.8150   -6.8810  -17.7740 H     142  IDY142      0.2100
     45  H         28.6800   -7.6260  -22.7440 H     141  GNX141      0.0666
     46  H         25.5930   -6.1610  -21.1310 H     141  GNX141      0.0927
     47  H         25.8240   -8.0560  -19.5980 H     142  IDY142      0.0649
     48  H         29.4740   -8.6360  -17.8150 H     142  IDY142      0.0938
     49  H         27.6970   -1.6510  -22.8400 H     141  GNX141      0.2095
     50  H         29.1220   -9.4120  -14.6420 H     142  IDY142      0.0525
     51  H         27.9080   -8.1700  -14.8370 H     142  IDY142      0.0525
     52  H         29.6010   -7.7710  -15.0020 H     142  IDY142      0.0525
     53  H         30.5270   -8.4680  -24.6870 H     141  GNX141      0.2469
     54  H         27.7580   -5.4710  -17.4110 H     142  IDY142      0.0742
     55  H         29.4320   -3.1650  -22.8130 H     141  GNX141      0.0584
     56  H         28.3850   -3.3810  -24.1950 H     141  GNX141      0.0584
     57  H         28.8470   -5.1320  -21.9140 H     141  GNX141      0.0647
     58  H         30.2240   -6.1070  -23.5680 H     141  GNX141      0.2100
@<TRIPOS>BOND
     1     1    14    1
     2     2    21    1
     3     2    10    1
     4     3    31    1
     5     3    22    2
     6     3     9    1
     7     4    21    1
     8     4    37    1
     9     4    34    1
    10     4    38    1
    11     5    26    1
    12     5    29    1
    13     6    27    2
    14     7    10    2
    15     8    27    2
    16     9    39    1
    17    10    35    2
    18    10    30    1
    19    11    25    1
    20    11    16    1
    21    11    31    1
    22    11    40    1
    23    12    27    1
    24    13    14    1
    25    14    18    1
    26    14    19    1
    27    15    18    1
    28    15    23    1
    29    15    21    1
    30    15    41    1
    31    16    23    1
    32    17    26    1
    33    17    33    1
    34    17    25    1
    35    17    42    1
    36    18    43    1
    37    20    25    1
    38    20    44    1
    39    21    45    1
    40    23    36    1
    41    23    46    1
    42    24    26    1
    43    24    31    1
    44    25    47    1
    45    26    48    1
    46    27    33    1
    47    28    32    1
    48    28    49    1
    49    29    50    1
    50    29    51    1
    51    29    52    1
    52    30    53    1
    53    31    54    1
    54    32    34    1
    55    32    55    1
    56    32    56    1
    57    34    36    1
    58    34    57    1
    59    37    58    1
