@<TRIPOS>MOLECULE
3UD9_LIGAND_1.pdb
 62 63 0 0 0
SMALL
GASTEIGER

@<TRIPOS>ATOM
      1  O2S      -41.8200   -3.2660   15.2100 O.3   141  SGN141     -0.2626
      2  O4       -42.6110   -6.5830   19.7940 O.3   141  SGN141     -0.3865
      3  O61      -37.8490   -5.6610   22.3410 O.2   142  IDY142     -0.2480
      4  S        -40.1070    0.4560   19.4840 S.O2  142  IDY142      0.2080
      5  C1       -38.0420   -1.2500   21.0500 C.3   142  IDY142      0.1908
      6  OS2      -39.6430    1.3650   18.4130 O.2   142  IDY142     -0.1181
      7  C3       -41.8370   -4.8980   18.5040 C.3   141  SGN141      0.1051
      8  C7       -35.6730   -0.2900   21.6370 C.3   142  IDY142      0.0395
      9  S1       -40.9060   -2.4120   15.8920 S.3   141  SGN141     -0.0198
     10  O4       -39.0440   -4.3560   19.0760 O.3   142  IDY142     -0.3406
     11  C5       -37.7730   -3.6210   21.0560 C.3   142  IDY142      0.1863
     12  O4S      -38.7020  -10.4580   16.3660 O.2   141  SGN141     -0.1181
     13  O5S      -39.8280  -11.0010   18.4100 O.2   141  SGN141     -0.1181
     14  C6       -40.2550   -8.3580   19.0110 C.3   141  SGN141      0.1076
     15  OS3      -39.6250    0.9990   20.7980 O.3   142  IDY142     -0.2311
     16  O3S      -39.6120   -2.4650   15.2790 O.3   141  SGN141     -0.2626
     17  C6       -38.5250   -4.8060   21.6170 C.2   142  IDY142      0.3367
     18  O6S      -37.6930   -9.9420   18.4960 O.3   141  SGN141     -0.2311
     19  C1       -39.4380   -4.9870   17.8860 C.3   141  SGN141      0.1795
     20  N        -40.8000   -3.0500   17.3290 N.3   141  SGN141     -0.1845
     21  S2       -38.9340  -10.0900   17.7470 S.O2  141  SGN141      0.2076
     22  O3       -43.1690   -4.6570   18.1120 O.3   141  SGN141     -0.3874
     23  OS1      -41.5740    0.3570   19.4430 O.2   142  IDY142     -0.1181
     24  O62      -39.8480   -4.6070   21.7720 O.3   142  IDY142     -0.4788
     25  O3       -36.1770   -2.1360   18.5400 O.3   142  IDY142     -0.3863
     26  C5       -40.3260   -6.8490   19.0490 C.3   141  SGN141      0.1155
     27  O6       -39.6940   -8.7440   17.7790 O.3   141  SGN141     -0.2131
     28  O1S      -41.4260   -1.0840   16.0060 O.3   141  SGN141     -0.2626
     29  O5       -39.4170   -6.3880   18.0880 O.3   141  SGN141     -0.3414
     30  C2       -40.8180   -4.4850   17.4600 C.3   141  SGN141      0.1078
     31  C4       -41.7390   -6.3830   18.7200 C.3   141  SGN141      0.1111
     32  O5       -38.4390   -2.4800   21.6200 O.3   142  IDY142     -0.3314
     33  C3       -37.6170   -2.3650   18.8280 C.3   142  IDY142      0.1176
     34  C2       -38.1370   -1.1630   19.5490 C.3   142  IDY142      0.1684
     35  C4       -37.7850   -3.6660   19.5360 C.3   142  IDY142      0.1267
     36  O2       -39.5230   -0.9150   19.2290 O.3   142  IDY142     -0.2047
     37  O1       -37.0000   -0.7620   21.5010 O.3   142  IDY142     -0.3519
     38 H         -42.6890   -3.2172   15.6381 H     141  SGN141      0.2439
     39 H         -43.4987   -6.2765   19.5512 H     141  SGN141      0.2100
     40 H         -38.8161   -0.6014   21.4035 H     142  IDY142      0.0938
     41 H         -41.6163   -4.3206   19.3774 H     141  SGN141      0.0638
     42 H         -35.5303    0.0930   22.6259 H     142  IDY142      0.0525
     43 H         -35.4964    0.4882   20.9242 H     142  IDY142      0.0525
     44 H         -34.9889   -1.0943   21.4638 H     142  IDY142      0.0525
     45 H         -36.7335   -3.6003   21.3089 H     142  IDY142      0.0742
     46 H         -41.2385   -8.7688   19.1051 H     141  SGN141      0.0611
     47 H         -39.6533   -8.7189   19.8189 H     141  SGN141      0.0611
     48 H         -39.9189    0.4166   21.5159 H     142  IDY142      0.2469
     49 H         -39.3148   -3.3871   15.2304 H     141  SGN141      0.2439
     50 H         -37.2059  -10.7807   18.4837 H     141  SGN141      0.2469
     51 H         -38.7610   -4.7508   17.0918 H     141  SGN141      0.0927
     52 H         -41.5835   -2.6904   17.8741 H     141  SGN141      0.1485
     53 H         -43.3725   -5.1790   17.3202 H     141  SGN141      0.2100
     54 H         -40.2945   -3.9846   21.2324 H     142  IDY142      0.2951
     55 H         -36.0701   -1.2891   18.0794 H     142  IDY142      0.2100
     56 H         -40.0838   -6.4684   20.0193 H     141  SGN141      0.0648
     57 H         -42.2996   -1.1138   16.4265 H     141  SGN141      0.2439
     58 H         -41.0802   -4.9114   16.5143 H     141  SGN141      0.0554
     59 H         -41.9874   -6.9445   17.8437 H     141  SGN141      0.0646
     60 H         -38.2075   -2.4641   17.9412 H     142  IDY142      0.0649
     61 H         -37.5047   -0.3683   19.2122 H     142  IDY142      0.0699
     62 H         -36.9059   -4.2131   19.2660 H     142  IDY142      0.0656
@<TRIPOS>BOND
     1     1     9    1
     2     2    31    1
     3     3    17    2
     4     4    36    1
     5     4    23    2
     6     4     6    2
     7     4    15    1
     8     5    37    1
     9     5    34    1
    10     5    32    1
    11     7    30    1
    12     7    31    1
    13     7    22    1
    14     8    37    1
    15     9    20    1
    16     9    28    1
    17     9    16    1
    18    10    19    1
    19    10    35    1
    20    11    35    1
    21    11    32    1
    22    11    17    1
    23    12    21    2
    24    13    21    2
    25    14    26    1
    26    14    27    1
    27    17    24    1
    28    18    21    1
    29    19    30    1
    30    19    29    1
    31    20    30    1
    32    21    27    1
    33    25    33    1
    34    26    31    1
    35    26    29    1
    36    33    34    1
    37    33    35    1
    38    34    36    1
    39     1    38    1
    40     2    39    1
    41     5    40    1
    42     7    41    1
    43     8    42    1
    44     8    43    1
    45     8    44    1
    46    11    45    1
    47    14    46    1
    48    14    47    1
    49    15    48    1
    50    16    49    1
    51    18    50    1
    52    19    51    1
    53    20    52    1
    54    22    53    1
    55    24    54    1
    56    25    55    1
    57    26    56    1
    58    28    57    1
    59    30    58    1
    60    31    59    1
    61    33    60    1
    62    34    61    1
    63    35    62    1
