@<TRIPOS>MOLECULE
3UD9_LIGAND_1_uncharged.pdb
 57 58 0 0 0
SMALL
GASTEIGER

@<TRIPOS>ATOM
      1  O2S      -41.8200   -3.2660   15.2100 O.3   141  SGN141     -0.0534
      2  O4       -42.6110   -6.5830   19.7940 O.3   141  SGN141     -0.3865
      3  O61      -37.8490   -5.6610   22.3410 O.2   142  IDY142     -0.2480
      4  S        -40.1070    0.4560   19.4840 S.3   142  IDY142     -0.0004
      5  C1       -38.0420   -1.2500   21.0500 C.3   142  IDY142      0.1907
      6  OS2      -39.6430    1.3650   18.4130 O.2   142  IDY142     -0.3452
      7  C3       -41.8370   -4.8980   18.5040 C.3   141  SGN141      0.1051
      8  C7       -35.6730   -0.2900   21.6370 C.3   142  IDY142      0.0395
      9  S1       -40.9060   -2.4120   15.8920 S.3   141  SGN141      0.0767
     10  O4       -39.0440   -4.3560   19.0760 O.3   142  IDY142     -0.3406
     11  C5       -37.7730   -3.6210   21.0560 C.3   142  IDY142      0.1863
     12  O4S      -38.7020  -10.4580   16.3660 O.2   141  SGN141     -0.3452
     13  O5S      -39.8280  -11.0010   18.4100 O.2   141  SGN141     -0.3452
     14  C6       -40.2550   -8.3580   19.0110 C.3   141  SGN141      0.1035
     15  OS3      -39.6250    0.9990   20.7980 O.3   142  IDY142     -0.2682
     16  O3S      -39.6120   -2.4650   15.2790 O.3   141  SGN141     -0.0534
     17  C6       -38.5250   -4.8060   21.6170 C.2   142  IDY142      0.3367
     18  O6S      -37.6930   -9.9420   18.4960 O.3   141  SGN141     -0.2682
     19  C1       -39.4380   -4.9870   17.8860 C.3   141  SGN141      0.1795
     20  N        -40.8000   -3.0500   17.3290 N.3   141  SGN141     -0.1775
     21  S2       -38.9340  -10.0900   17.7470 S.3   141  SGN141     -0.0008
     22  O3       -43.1690   -4.6570   18.1120 O.3   141  SGN141     -0.3874
     23  OS1      -41.5740    0.3570   19.4430 O.2   142  IDY142     -0.3452
     24  O62      -39.8480   -4.6070   21.7720 O.3   142  IDY142     -0.4788
     25  O3       -36.1770   -2.1360   18.5400 O.3   142  IDY142     -0.3863
     26  C5       -40.3260   -6.8490   19.0490 C.3   141  SGN141      0.1154
     27  O6       -39.6940   -8.7440   17.7790 O.3   141  SGN141     -0.2520
     28  O1S      -41.4260   -1.0840   16.0060 O.3   141  SGN141     -0.0534
     29  O5       -39.4170   -6.3880   18.0880 O.3   141  SGN141     -0.3414
     30  C2       -40.8180   -4.4850   17.4600 C.3   141  SGN141      0.1080
     31  C4       -41.7390   -6.3830   18.7200 C.3   141  SGN141      0.1111
     32  O5       -38.4390   -2.4800   21.6200 O.3   142  IDY142     -0.3314
     33  C3       -37.6170   -2.3650   18.8280 C.3   142  IDY142      0.1174
     34  C2       -38.1370   -1.1630   19.5490 C.3   142  IDY142      0.1644
     35  C4       -37.7850   -3.6660   19.5360 C.3   142  IDY142      0.1267
     36  O2       -39.5230   -0.9150   19.2290 O.3   142  IDY142     -0.2435
     37  O1       -37.0000   -0.7620   21.5010 O.3   142  IDY142     -0.3519
     38  H        -43.4990   -6.2770   19.5510 H     141  SGN141      0.2100
     39  H        -38.8160   -0.6010   21.4040 H     142  IDY142      0.0938
     40  H        -41.6160   -4.3210   19.3770 H     141  SGN141      0.0638
     41  H        -35.5300    0.0930   22.6260 H     142  IDY142      0.0525
     42  H        -35.4960    0.4880   20.9240 H     142  IDY142      0.0525
     43  H        -34.9890   -1.0940   21.4640 H     142  IDY142      0.0525
     44  H        -36.7330   -3.6000   21.3090 H     142  IDY142      0.0742
     45  H        -41.2390   -8.7690   19.1050 H     141  SGN141      0.0610
     46  H        -39.6530   -8.7190   19.8190 H     141  SGN141      0.0610
     47  H        -38.7610   -4.7510   17.0920 H     141  SGN141      0.0927
     48  H        -41.5840   -2.6900   17.8740 H     141  SGN141      0.1487
     49  H        -43.3730   -5.1790   17.3200 H     141  SGN141      0.2100
     50  H        -40.2940   -3.9850   21.2320 H     142  IDY142      0.2951
     51  H        -36.0700   -1.2890   18.0790 H     142  IDY142      0.2100
     52  H        -40.0840   -6.4680   20.0190 H     141  SGN141      0.0648
     53  H        -41.0800   -4.9110   16.5140 H     141  SGN141      0.0554
     54  H        -41.9870   -6.9440   17.8440 H     141  SGN141      0.0646
     55  H        -38.2080   -2.4640   17.9410 H     142  IDY142      0.0649
     56  H        -37.5050   -0.3680   19.2120 H     142  IDY142      0.0698
     57  H        -36.9060   -4.2130   19.2660 H     142  IDY142      0.0656
@<TRIPOS>BOND
     1     1     9    1
     2     2    31    1
     3     2    38    1
     4     3    17    2
     5     4    36    1
     6     4    23    2
     7     4     6    2
     8     4    15    1
     9     5    37    1
    10     5    34    1
    11     5    32    1
    12     5    39    1
    13     7    30    1
    14     7    31    1
    15     7    22    1
    16     7    40    1
    17     8    37    1
    18     8    41    1
    19     8    42    1
    20     8    43    1
    21     9    20    1
    22     9    28    1
    23     9    16    1
    24    10    19    1
    25    10    35    1
    26    11    35    1
    27    11    32    1
    28    11    17    1
    29    11    44    1
    30    12    21    2
    31    13    21    2
    32    14    26    1
    33    14    27    1
    34    14    45    1
    35    14    46    1
    36    17    24    1
    37    18    21    1
    38    19    30    1
    39    19    29    1
    40    19    47    1
    41    20    30    1
    42    20    48    1
    43    21    27    1
    44    22    49    1
    45    24    50    1
    46    25    33    1
    47    25    51    1
    48    26    31    1
    49    26    29    1
    50    26    52    1
    51    30    53    1
    52    31    54    1
    53    33    34    1
    54    33    35    1
    55    33    55    1
    56    34    36    1
    57    34    56    1
    58    35    57    1
