@<TRIPOS>MOLECULE
3UDA_LIGAND_1.pdb
 66 67 0 0 0
SMALL
GASTEIGER

@<TRIPOS>ATOM
      1  O2S       -3.5610    8.8490   14.8830 O.3   141  SUS141     -0.2626
      2  C5         0.7000   12.5140   20.4560 C.3   142  IDY142      0.1863
      3  N         -2.2260   10.0650   16.5490 N.3   141  SUS141     -0.1844
      4  O2        -0.6840    9.3040   19.0150 O.3   142  IDY142     -0.2047
      5  OS1        0.1420    7.4660   17.6000 O.2   142  IDY142     -0.1181
      6  C1        -2.3210   12.3580   17.3670 C.3   141  SUS141      0.1796
      7  OS2       -1.6270    7.0350   19.2180 O.2   142  IDY142     -0.1181
      8  O8S       -0.0860    8.8400   14.7710 O.2   141  SUS141     -0.1181
      9  S1        -3.5310    9.1720   16.3070 S.3   141  SUS141     -0.0198
     10  C4        -0.6860   12.5180   19.8100 C.3   142  IDY142      0.1267
     11  O3        -1.0010   11.0940   14.1090 O.3   141  SUS141     -0.2080
     12  C4        -0.7910   13.2560   15.1210 C.3   141  SUS141      0.1137
     13  O61        2.2100   12.9290   18.5850 O.2   142  IDY142     -0.2480
     14  C7         1.4060   10.6300   22.9550 C.3   142  IDY142      0.0395
     15  S3        -0.4300    9.8310   13.7780 S.O2  141  SUS141      0.2079
     16  S2        -2.7520   17.2840   15.7050 S.O2  141  SUS141      0.2076
     17  O6        -2.1370   16.1350   16.5630 O.3   141  SUS141     -0.2131
     18  C1         0.4940   10.0290   20.9690 C.3   142  IDY142      0.1908
     19  O5         1.2780   11.1790   20.5600 O.3   142  IDY142     -0.3314
     20  O62        1.8580   14.6490   19.9500 O.3   142  IDY142     -0.4788
     21  C3        -0.9470   11.7570   15.3510 C.3   141  SUS141      0.1395
     22  C5        -0.9990   14.0330   16.4160 C.3   141  SUS141      0.1156
     23  O6S       -2.5270   18.5310   16.4310 O.3   141  SUS141     -0.2311
     24  O1         0.1170   10.0040   22.4130 O.3   142  IDY142     -0.3519
     25  C2        -2.2140   11.4560   16.1430 C.3   141  SUS141      0.1104
     26  C6         1.6040   13.3920   19.6120 C.2   142  IDY142      0.3367
     27  C2        -0.8660    9.9210   20.3180 C.3   142  IDY142      0.1684
     28  C6        -0.9240   15.5340   16.1710 C.3   141  SUS141      0.1076
     29  S         -0.3830    7.7840   18.9530 S.O2  142  IDY142      0.2080
     30  O4         0.4990   13.5220   14.6160 O.3   141  SUS141     -0.3864
     31  O3        -2.7440   11.4790   20.9960 O.3   142  IDY142     -0.3863
     32  O5        -2.2570   13.7070   16.9630 O.3   141  SUS141     -0.3413
     33  O4        -1.2560   12.0810   18.2480 O.3   142  IDY142     -0.3406
     34  C3        -1.4340   11.2990   20.2700 C.3   142  IDY142      0.1176
     35  O7S        0.7730   10.1360   13.0480 O.2   141  SUS141     -0.1181
     36  O9S       -1.3490    9.2760   12.8080 O.3   141  SUS141     -0.2311
     37  O5S       -4.1720   16.9880   15.5440 O.2   141  SUS141     -0.1181
     38  O1S       -4.6760    9.9790   16.7170 O.3   141  SUS141     -0.2626
     39  O3S       -3.3850    7.9770   17.1330 O.3   141  SUS141     -0.2626
     40  O4S       -2.0720   17.2660   14.4130 O.2   141  SUS141     -0.1181
     41  OS3        0.6090    7.3780   19.9900 O.3   142  IDY142     -0.2311
     42 H          -3.6586    9.6653   14.3683 H     141  SUS141      0.2439
     43 H           0.6053   12.8819   21.4563 H     142  IDY142      0.0742
     44 H          -1.4603    9.6074   16.0544 H     141  SUS141      0.1485
     45 H          -3.2516   12.1778   17.8634 H     141  SUS141      0.0927
     46 H          -0.7618   13.5705   19.9873 H     142  IDY142      0.0656
     47 H          -1.5326   13.5688   14.4160 H     141  SUS141      0.0647
     48 H           1.3442   10.7077   24.0204 H     142  IDY142      0.0525
     49 H           1.5338   11.6050   22.5331 H     142  IDY142      0.0525
     50 H           2.2402   10.0146   22.6900 H     142  IDY142      0.0525
     51 H           1.1708    9.2496   20.6871 H     142  IDY142      0.0938
     52 H           1.4357   15.0281   20.6956 H     142  IDY142      0.2951
     53 H          -0.1051   11.4112   15.9136 H     141  SUS141      0.0666
     54 H          -0.2220   13.7637   17.1005 H     141  SUS141      0.0648
     55 H          -1.5736   18.6887   16.5151 H     141  SUS141      0.2469
     56 H          -3.0568   11.6471   15.5120 H     141  SUS141      0.0555
     57 H          -1.5590    9.3067   20.8541 H     142  IDY142      0.0699
     58 H          -0.1196   15.9488   16.7417 H     141  SUS141      0.0611
     59 H          -0.7548   15.7176   15.1305 H     141  SUS141      0.0611
     60 H           1.1642   13.2354   15.2612 H     141  SUS141      0.2100
     61 H          -3.0362   12.4001   20.9121 H     142  IDY142      0.2100
     62 H          -1.4874   11.2647   19.2019 H     142  IDY142      0.0649
     63 H          -2.1842    9.0498   13.2464 H     141  SUS141      0.2469
     64 H          -4.7406   10.7615   16.1474 H     141  SUS141      0.2439
     65 H          -2.6164    7.4677   16.8318 H     141  SUS141      0.2439
     66 H           1.4418    7.8537   19.8446 H     142  IDY142      0.2469
@<TRIPOS>BOND
     1     1     9    1
     2     2    10    1
     3     2    19    1
     4     2    26    1
     5     3     9    1
     6     3    25    1
     7     4    29    1
     8     4    27    1
     9     5    29    2
    10     6    25    1
    11     6    32    1
    12     6    33    1
    13     7    29    2
    14     8    15    2
    15     9    38    1
    16     9    39    1
    17    10    34    1
    18    10    33    1
    19    11    21    1
    20    11    15    1
    21    12    21    1
    22    12    30    1
    23    12    22    1
    24    13    26    2
    25    14    24    1
    26    15    35    2
    27    15    36    1
    28    16    17    1
    29    16    40    2
    30    16    37    2
    31    16    23    1
    32    17    28    1
    33    18    24    1
    34    18    27    1
    35    18    19    1
    36    20    26    1
    37    21    25    1
    38    22    32    1
    39    22    28    1
    40    27    34    1
    41    29    41    1
    42    31    34    1
    43     1    42    1
    44     2    43    1
    45     3    44    1
    46     6    45    1
    47    10    46    1
    48    12    47    1
    49    14    48    1
    50    14    49    1
    51    14    50    1
    52    18    51    1
    53    20    52    1
    54    21    53    1
    55    22    54    1
    56    23    55    1
    57    25    56    1
    58    27    57    1
    59    28    58    1
    60    28    59    1
    61    30    60    1
    62    31    61    1
    63    34    62    1
    64    36    63    1
    65    38    64    1
    66    39    65    1
    67    41    66    1
