@<TRIPOS>MOLECULE
3UDA_LIGAND_1_uncharged.pdb
 60 61 0 0 0
SMALL
GASTEIGER

@<TRIPOS>ATOM
      1  O2S       -3.5610    8.8490   14.8830 O.3   141  SUS141     -0.0534
      2  C5         0.7000   12.5140   20.4560 C.3   142  IDY142      0.1863
      3  N         -2.2260   10.0650   16.5490 N.3   141  SUS141     -0.1775
      4  O2        -0.6840    9.3040   19.0150 O.3   142  IDY142     -0.2435
      5  OS1        0.1420    7.4660   17.6000 O.2   142  IDY142     -0.3452
      6  C1        -2.3210   12.3580   17.3670 C.3   141  SUS141      0.1796
      7  OS2       -1.6270    7.0350   19.2180 O.2   142  IDY142     -0.3452
      8  O8S       -0.0860    8.8400   14.7710 O.2   141  SUS141     -0.3452
      9  S1        -3.5310    9.1720   16.3070 S.3   141  SUS141      0.0767
     10  C4        -0.6860   12.5180   19.8100 C.3   142  IDY142      0.1267
     11  O3        -1.0010   11.0940   14.1090 O.3   141  SUS141     -0.2469
     12  C4        -0.7910   13.2560   15.1210 C.3   141  SUS141      0.1136
     13  O61        2.2100   12.9290   18.5850 O.2   142  IDY142     -0.2480
     14  C7         1.4060   10.6300   22.9550 C.3   142  IDY142      0.0395
     15  S3        -0.4300    9.8310   13.7780 S.3   141  SUS141     -0.0005
     16  S2        -2.7520   17.2840   15.7050 S.3   141  SUS141     -0.0008
     17  O6        -2.1370   16.1350   16.5630 O.3   141  SUS141     -0.2520
     18  C1         0.4940   10.0290   20.9690 C.3   142  IDY142      0.1907
     19  O5         1.2780   11.1790   20.5600 O.3   142  IDY142     -0.3314
     20  O62        1.8580   14.6490   19.9500 O.3   142  IDY142     -0.4788
     21  C3        -0.9470   11.7570   15.3510 C.3   141  SUS141      0.1355
     22  C5        -0.9990   14.0330   16.4160 C.3   141  SUS141      0.1155
     23  O6S       -2.5270   18.5310   16.4310 O.3   141  SUS141     -0.2682
     24  O1         0.1170   10.0040   22.4130 O.3   142  IDY142     -0.3519
     25  C2        -2.2140   11.4560   16.1430 C.3   141  SUS141      0.1105
     26  C6         1.6040   13.3920   19.6120 C.2   142  IDY142      0.3367
     27  C2        -0.8660    9.9210   20.3180 C.3   142  IDY142      0.1644
     28  C6        -0.9240   15.5340   16.1710 C.3   141  SUS141      0.1035
     29  S         -0.3830    7.7840   18.9530 S.3   142  IDY142     -0.0004
     30  O4         0.4990   13.5220   14.6160 O.3   141  SUS141     -0.3864
     31  O3        -2.7440   11.4790   20.9960 O.3   142  IDY142     -0.3863
     32  O5        -2.2570   13.7070   16.9630 O.3   141  SUS141     -0.3414
     33  O4        -1.2560   12.0810   18.2480 O.3   142  IDY142     -0.3406
     34  C3        -1.4340   11.2990   20.2700 C.3   142  IDY142      0.1174
     35  O7S        0.7730   10.1360   13.0480 O.2   141  SUS141     -0.3452
     36  O9S       -1.3490    9.2760   12.8080 O.3   141  SUS141     -0.2682
     37  O5S       -4.1720   16.9880   15.5440 O.2   141  SUS141     -0.3452
     38  O1S       -4.6760    9.9790   16.7170 O.3   141  SUS141     -0.0534
     39  O3S       -3.3850    7.9770   17.1330 O.3   141  SUS141     -0.0534
     40  O4S       -2.0720   17.2660   14.4130 O.2   141  SUS141     -0.3452
     41  OS3        0.6090    7.3780   19.9900 O.3   142  IDY142     -0.2682
     42  H          0.6050   12.8820   21.4560 H     142  IDY142      0.0742
     43  H         -1.4600    9.6070   16.0540 H     141  SUS141      0.1487
     44  H         -3.2520   12.1780   17.8630 H     141  SUS141      0.0927
     45  H         -0.7620   13.5700   19.9870 H     142  IDY142      0.0656
     46  H         -1.5330   13.5690   14.4160 H     141  SUS141      0.0647
     47  H          1.3440   10.7080   24.0200 H     142  IDY142      0.0525
     48  H          1.5340   11.6050   22.5330 H     142  IDY142      0.0525
     49  H          2.2400   10.0150   22.6900 H     142  IDY142      0.0525
     50  H          1.1710    9.2500   20.6870 H     142  IDY142      0.0938
     51  H          1.4360   15.0280   20.6960 H     142  IDY142      0.2951
     52  H         -0.1050   11.4110   15.9140 H     141  SUS141      0.0664
     53  H         -0.2220   13.7640   17.1010 H     141  SUS141      0.0648
     54  H         -3.0570   11.6470   15.5120 H     141  SUS141      0.0555
     55  H         -1.5590    9.3070   20.8540 H     142  IDY142      0.0698
     56  H         -0.1200   15.9490   16.7420 H     141  SUS141      0.0610
     57  H         -0.7550   15.7180   15.1300 H     141  SUS141      0.0610
     58  H          1.1640   13.2350   15.2610 H     141  SUS141      0.2100
     59  H         -3.0360   12.4000   20.9120 H     142  IDY142      0.2100
     60  H         -1.4870   11.2650   19.2020 H     142  IDY142      0.0649
@<TRIPOS>BOND
     1     1     9    1
     2     2    10    1
     3     2    19    1
     4     2    26    1
     5     2    42    1
     6     3     9    1
     7     3    25    1
     8     3    43    1
     9     4    29    1
    10     4    27    1
    11     5    29    2
    12     6    25    1
    13     6    32    1
    14     6    33    1
    15     6    44    1
    16     7    29    2
    17     8    15    2
    18     9    38    1
    19     9    39    1
    20    10    34    1
    21    10    33    1
    22    10    45    1
    23    11    21    1
    24    11    15    1
    25    12    21    1
    26    12    30    1
    27    12    22    1
    28    12    46    1
    29    13    26    2
    30    14    24    1
    31    14    47    1
    32    14    48    1
    33    14    49    1
    34    15    35    2
    35    15    36    1
    36    16    17    1
    37    16    40    2
    38    16    37    2
    39    16    23    1
    40    17    28    1
    41    18    24    1
    42    18    27    1
    43    18    19    1
    44    18    50    1
    45    20    26    1
    46    20    51    1
    47    21    25    1
    48    21    52    1
    49    22    32    1
    50    22    28    1
    51    22    53    1
    52    25    54    1
    53    27    34    1
    54    27    55    1
    55    28    56    1
    56    28    57    1
    57    29    41    1
    58    30    58    1
    59    31    34    1
    60    31    59    1
    61    34    60    1
