@<TRIPOS>MOLECULE
4AK2_LIGAND_1.pdb
 170 175 0 0 0
SMALL
GASTEIGER

@<TRIPOS>ATOM
      1  O2       -18.1650   -5.6450  -23.3310 O.3   1712  IDS1712    -0.2047
      2  O4        -8.1220  -10.8840  -24.7050 O.3   1709  SGN1709    -0.3401
      3  C2       -13.2690   -7.9100  -27.9710 C.3   1711  SGN1711     0.1078
      4  O61      -25.1660   -0.7070  -23.7280 O.2   1714  IDS1714    -0.2481
      5  S        -18.7390   -5.7880  -21.9170 S.O2  1712  IDS1712     0.2080
      6  O3S       -7.5970   -8.2030  -28.8370 O.2   1710  IDS1710    -0.1181
      7  O6S       -2.8010   -8.5660  -24.4650 O.2   1709  SGN1709    -0.1181
      8  C5       -14.6790   -8.7020  -25.5620 C.3   1711  SGN1711     0.1159
      9  C2       -19.3950   -1.2350  -23.5450 C.3   1713  SGN1713     0.1078
     10  O3       -14.0260   -5.6000  -27.6610 O.3   1711  SGN1711    -0.3874
     11  C4       -11.4120  -10.4070  -26.0860 C.3   1710  IDS1710     0.1267
     12  O1S       -8.8120  -13.7520  -18.1140 O.3   1709  SGN1709    -0.2626
     13  C6       -19.6250   -1.6050  -27.7460 C.3   1713  SGN1713     0.1076
     14  C1       -22.8680   -2.2220  -26.6460 C.3   1714  IDS1714     0.1914
     15  O2       -24.5780   -2.8150  -28.1860 O.3   1714  IDS1714    -0.2048
     16  O62      -11.9540   -9.0940  -22.9410 O.2   1710  IDS1710    -0.2480
     17  S         -8.1010   -7.5010  -27.6530 S.O2  1710  IDS1710     0.2080
     18  O6       -16.8570   -9.6050  -25.7640 O.3   1711  SGN1711    -0.2131
     19  O3        -9.8240  -12.0390  -26.8870 O.3   1710  IDS1710    -0.3863
     20  O2S      -17.8170   -6.6510  -21.1720 O.2   1712  IDS1712    -0.1181
     21  C5        -6.0530  -11.3090  -23.7070 C.3   1709  SGN1709     0.1159
     22  C3       -16.1190   -4.2250  -23.1920 C.3   1712  IDS1712     0.1176
     23  C2        -7.4080  -11.9820  -21.1800 C.3   1709  SGN1709     0.1076
     24  C5       -15.9300   -3.7560  -25.6040 C.3   1712  IDS1712     0.1863
     25  C3       -13.7340   -6.8260  -26.9820 C.3   1711  SGN1711     0.1055
     26  O5       -23.8170   -1.7170  -25.6900 O.3   1714  IDS1714    -0.3340
     27  O62      -16.6860   -2.9520  -27.7090 O.2   1712  IDS1712    -0.2480
     28  O62      -25.4800   -2.5980  -22.6590 O.3   1714  IDS1714    -0.4788
     29  C5       -24.1670   -2.6530  -24.6730 C.3   1714  IDS1714     0.1603
     30  S1       -11.8590   -7.9960  -30.2200 S.3   1711  SGN1711    -0.0198
     31  O3S      -10.3170   -7.7240  -30.5120 O.3   1711  SGN1711    -0.2626
     32  O2S      -12.7440   -7.1510  -30.9610 O.3   1711  SGN1711    -0.2626
     33  O1S      -20.0610   -6.3880  -22.1410 O.2   1712  IDS1712    -0.1181
     34  O4S      -21.6790   -0.5050  -29.7330 O.2   1713  SGN1713    -0.1181
     35  O6        -3.9830  -10.6700  -24.7780 O.3   1709  SGN1709    -0.2131
     36  O6       -20.0830   -0.2470  -27.7740 O.3   1713  SGN1713    -0.2131
     37  C6        -5.2900  -10.2210  -24.4710 C.3   1709  SGN1709     0.1076
     38  C6       -24.9950   -1.9450  -23.6130 C.2   1714  IDS1714     0.3341
     39  O5S       -1.5540  -10.5270  -25.4620 O.2   1709  SGN1709    -0.1181
     40  O1S      -12.1490   -9.4130  -30.3180 O.3   1711  SGN1711    -0.2626
     41  O61      -12.9880  -10.9730  -23.4830 O.3   1710  IDS1710    -0.4788
     42  C4        -7.4830  -10.8420  -23.4180 C.3   1709  SGN1709     0.1176
     43  O4       -21.6980   -2.8110  -26.0500 O.3   1713  SGN1713    -0.3401
     44  O4S       -3.4010   -9.3420  -26.7460 O.3   1709  SGN1709    -0.2311
     45  O1S      -16.9830   -0.5810  -21.4580 O.3   1713  SGN1713    -0.2626
     46  S2        -2.9660   -9.6920  -25.3950 S.O2  1709  SGN1709     0.2076
     47  C4       -14.9880   -7.3460  -26.2590 C.3   1711  SGN1711     0.1176
     48  O1        -5.9570  -13.7150  -22.0780 O.3   1709  SGN1709    -0.3656
     49  O4       -15.1810   -6.5020  -25.1030 O.3   1711  SGN1711    -0.3401
     50  O61      -15.2890   -1.7120  -26.5540 O.3   1712  IDS1712    -0.4788
     51  C1        -8.7180   -9.6480  -25.1350 C.3   1710  IDS1710     0.1916
     52  C1       -16.5160   -6.0100  -25.0020 C.3   1712  IDS1712     0.1916
     53  O4       -17.7760   -2.8740  -24.2430 O.3   1712  IDS1712    -0.3406
     54  O3        -9.4730  -11.2520  -22.1150 O.3   1709  SGN1709    -0.3874
     55  O5S      -19.3390    0.0900  -30.1790 O.2   1713  SGN1713    -0.1181
     56  C3       -24.0880   -4.4470  -26.4900 C.3   1714  IDS1714     0.0914
     57  S1       -18.3890   -0.4970  -21.1830 S.3   1713  SGN1713    -0.0198
     58  C5       -19.5040   -2.0510  -26.3200 C.3   1713  SGN1713     0.1159
     59  C1       -13.1050   -9.2810  -27.2850 C.3   1711  SGN1711     0.1795
     60  N         -7.9980  -12.9790  -20.2950 N.3   1709  SGN1709    -0.1845
     61  O6S      -19.0070  -10.4270  -26.3850 O.2   1711  SGN1711    -0.1181
     62  C3        -8.2020  -11.7930  -22.4780 C.3   1709  SGN1709     0.1055
     63  O6S      -20.8620    1.6780  -28.9250 O.3   1713  SGN1713    -0.2311
     64  S2       -18.2140  -10.1440  -25.2620 S.O2  1711  SGN1711     0.2076
     65  O5        -5.4040  -11.4550  -22.4430 O.3   1709  SGN1709    -0.3416
     66  C2       -23.5120   -3.3610  -27.3920 C.3   1714  IDS1714     0.1660
     67  N        -19.1350   -1.5270  -22.1560 N.3   1713  SGN1713    -0.1845
     68  O5       -18.4470   -1.2320  -25.7710 O.3   1713  SGN1713    -0.3413
     69  O3       -23.0590   -5.3960  -26.1690 O.3   1714  IDS1714    -0.3889
     70  C4       -24.7720   -3.9430  -25.2120 C.3   1714  IDS1714     0.0128
     71  S2       -20.5650    0.2850  -29.1690 S.O2  1713  SGN1713     0.2076
     72  O2S       -7.0970   -7.4590  -26.5700 O.3   1710  IDS1710    -0.2311
     73  C5       -10.9620  -10.4160  -24.6170 C.3   1710  IDS1710     0.1863
     74  O2        -9.2570   -8.4420  -27.1560 O.3   1710  IDS1710    -0.2047
     75  O2S       -6.4460  -13.6320  -18.4050 O.3   1709  SGN1709    -0.2626
     76  O3       -21.7370   -1.6310  -23.3150 O.3   1713  SGN1713    -0.3874
     77  O1S      -23.9130   -2.8180  -30.4720 O.2   1714  IDS1714    -0.1181
     78  C6       -15.8340   -9.3620  -24.8070 C.3   1711  SGN1711     0.1076
     79  O3       -14.7050   -4.4090  -23.0310 O.3   1712  IDS1712    -0.3863
     80  C2        -8.9980   -9.7570  -26.6430 C.3   1710  IDS1710     0.1684
     81  O4       -12.0020   -9.1360  -26.3860 O.3   1710  IDS1710    -0.3406
     82  O3S      -26.3270   -2.8330  -29.9310 O.2   1714  IDS1714    -0.1181
     83  O3S      -18.6360   -1.0180  -19.6840 O.3   1713  SGN1713    -0.2626
     84  O1S       -8.6540   -6.1760  -27.9480 O.2   1710  IDS1710    -0.1181
     85  O5S      -17.8660  -11.3740  -24.3100 O.3   1711  SGN1711    -0.2311
     86  O3S      -18.8090   -4.4110  -21.3430 O.3   1712  IDS1712    -0.2311
     87  C4       -20.7980   -1.8380  -25.4940 C.3   1713  SGN1713     0.1176
     88  O2S      -18.9630    0.7780  -21.5070 O.3   1713  SGN1713    -0.2626
     89  O4S      -18.7880   -9.0420  -24.4820 O.2   1711  SGN1711    -0.1181
     90  O5        -9.9410   -9.4150  -24.4380 O.3   1710  IDS1710    -0.3314
     91  O2S      -24.9540   -4.8010  -29.5350 O.3   1714  IDS1714    -0.2311
     92  O5       -14.3050   -9.6260  -26.6010 O.3   1711  SGN1711    -0.3413
     93  C6       -15.9800   -2.7440  -26.7060 C.2   1712  IDS1712     0.3367
     94  C1       -18.1540   -1.4950  -24.4070 C.3   1713  SGN1713     0.1795
     95  O5       -16.7180   -4.9180  -25.8870 O.3   1712  IDS1712    -0.3314
     96  C3       -10.1930  -10.6620  -26.9780 C.3   1710  IDS1710     0.1176
     97  C3       -20.5670   -2.0810  -24.0050 C.3   1713  SGN1713     0.1055
     98  N        -12.0430   -7.5570  -28.6840 N.3   1711  SGN1711    -0.1845
     99  C2       -16.7520   -5.5880  -23.5750 C.3   1712  IDS1712     0.1684
    100  S        -24.9720   -3.3160  -29.5870 S.O2  1714  IDS1714     0.2080
    101  C1        -5.9780  -12.3970  -21.5380 C.3   1709  SGN1709     0.1762
    102  C6       -12.0480  -10.1570  -23.6060 C.2   1710  IDS1710     0.3367
    103  C4       -16.3740   -3.1690  -24.2580 C.3   1712  IDS1712     0.1267
    104  O3S       -7.6980  -11.5470  -18.2450 O.3   1709  SGN1709    -0.2626
    105  S1        -7.7160  -13.0350  -18.7270 S.3   1709  SGN1709    -0.0198
    106 H         -14.0500   -7.9786  -28.6991 H     1711  SGN1711     0.0554
    107 H         -13.9286   -8.4841  -24.8310 H     1711  SGN1711     0.0648
    108 H         -19.6369   -0.1983  -23.6533 H     1713  SGN1713     0.0554
    109 H         -13.2283   -5.2825  -28.1125 H     1711  SGN1711     0.2100
    110 H         -12.1378  -11.1732  -26.2624 H     1710  IDS1710     0.0656
    111 H          -8.8095  -14.6716  -18.4225 H     1709  SGN1709     0.2439
    112 H         -20.3255   -2.2303  -28.2590 H     1713  SGN1713     0.0611
    113 H         -18.6724   -1.6748  -28.2282 H     1713  SGN1713     0.0611
    114 H         -22.5855   -1.3830  -27.2470 H     1714  IDS1714     0.0939
    115 H         -10.5901  -12.5939  -27.1016 H     1710  IDS1710     0.2100
    116 H          -6.0715  -12.2140  -24.2775 H     1709  SGN1709     0.0648
    117 H         -16.5656   -3.8835  -22.2816 H     1712  IDS1712     0.0649
    118 H          -7.4205  -11.0521  -20.6508 H     1709  SGN1709     0.0554
    119 H         -14.9025   -4.0471  -25.5377 H     1712  IDS1712     0.0742
    120 H         -12.9537   -6.6237  -26.2784 H     1711  SGN1711     0.0638
    121 H         -25.3342   -3.5218  -22.6015 H     1714  IDS1714     0.2951
    122 H         -23.2748   -3.0059  -24.1993 H     1714  IDS1714     0.0715
    123 H          -9.7757   -8.3279  -29.9798 H     1711  SGN1711     0.2439
    124 H         -13.6623   -7.3686  -30.7366 H     1711  SGN1711     0.2439
    125 H          -5.2291   -9.3402  -23.8665 H     1709  SGN1709     0.0611
    126 H          -5.8086  -10.0019  -25.3809 H     1709  SGN1709     0.0611
    127 H         -13.0902   -9.5636  -30.1380 H     1711  SGN1711     0.2439
    128 H         -13.0055  -11.7500  -24.0065 H     1710  IDS1710     0.2951
    129 H          -7.4985   -9.8790  -22.9519 H     1709  SGN1709     0.0650
    130 H          -4.2352   -8.8492  -26.6996 H     1709  SGN1709     0.2469
    131 H         -16.8110   -0.2703  -22.3607 H     1713  SGN1713     0.2439
    132 H         -15.7888   -7.3922  -26.9671 H     1711  SGN1711     0.0650
    133 H          -6.3526  -14.3313  -21.4420 H     1709  SGN1709     0.2125
    134 H         -14.7737   -1.6031  -25.7790 H     1712  IDS1712     0.2951
    135 H          -8.0548   -8.8337  -24.9299 H     1710  IDS1710     0.0939
    136 H         -17.2097   -6.7767  -25.2776 H     1712  IDS1712     0.0939
    137 H          -9.9258  -11.8649  -21.5148 H     1709  SGN1709     0.2100
    138 H         -24.8733   -4.9070  -27.0527 H     1714  IDS1714     0.0622
    139 H         -19.3104   -3.1026  -26.2795 H     1713  SGN1713     0.0648
    140 H         -12.9175  -10.0689  -27.9842 H     1711  SGN1711     0.0927
    141 H          -7.7096  -13.8854  -20.6634 H     1709  SGN1709     0.1485
    142 H          -8.3096  -12.7274  -22.9882 H     1709  SGN1709     0.0638
    143 H         -21.6088    1.7464  -28.3098 H     1713  SGN1713     0.2469
    144 H         -22.7499   -3.8278  -27.9804 H     1714  IDS1714     0.0698
    145 H         -18.5766   -2.3805  -22.1461 H     1713  SGN1713     0.1485
    146 H         -22.3604   -4.9557  -25.6601 H     1714  IDS1714     0.2099
    147 H         -25.8060   -3.7697  -25.4260 H     1714  IDS1714     0.0321
    148 H         -24.6357   -4.6942  -24.4624 H     1714  IDS1714     0.0321
    149 H          -6.7585   -8.3535  -26.4081 H     1710  IDS1710     0.2469
    150 H         -10.6137  -11.4110  -24.4338 H     1710  IDS1710     0.0742
    151 H          -6.4400  -14.5568  -18.6976 H     1709  SGN1709     0.2439
    152 H         -21.6242   -1.7711  -22.3618 H     1713  SGN1713     0.2100
    153 H         -16.1940   -8.7097  -24.0390 H     1711  SGN1711     0.0611
    154 H         -15.5198  -10.2710  -24.3380 H     1711  SGN1711     0.0611
    155 H         -14.3219   -4.7181  -23.8668 H     1712  IDS1712     0.2100
    156 H          -8.1344  -10.1997  -27.0937 H     1710  IDS1710     0.0699
    157 H         -18.2106   -1.8820  -19.5678 H     1713  SGN1713     0.2439
    158 H         -17.4878  -12.0946  -24.8379 H     1711  SGN1711     0.2469
    159 H         -19.4276   -3.8748  -21.8634 H     1712  IDS1712     0.2469
    160 H         -21.1686   -0.8359  -25.5514 H     1713  SGN1713     0.0650
    161 H         -18.7580    1.0000  -22.4287 H     1713  SGN1713     0.2439
    162 H         -24.0613   -5.1058  -29.3088 H     1714  IDS1714     0.2469
    163 H         -17.3530   -0.8534  -24.1043 H     1713  SGN1713     0.0927
    164 H         -10.4725  -10.4200  -27.9821 H     1710  IDS1710     0.0649
    165 H         -20.3701   -3.1153  -23.8144 H     1713  SGN1713     0.0638
    166 H         -11.2691   -7.9702  -28.1637 H     1711  SGN1711     0.1485
    167 H         -16.2400   -6.2698  -22.9285 H     1712  IDS1712     0.0699
    168 H          -5.3869  -12.4038  -20.6461 H     1709  SGN1709     0.0925
    169 H         -15.8314   -2.2632  -24.0847 H     1712  IDS1712     0.0656
    170 H          -8.5478  -11.1289  -18.4545 H     1709  SGN1709     0.2439
@<TRIPOS>BOND
     1     1    99    1
     2     1     5    1
     3     2    42    1
     4     2    51    1
     5     3    59    1
     6     3    25    1
     7     3    98    1
     8     4    38    2
     9     5    33    2
    10     5    20    2
    11     5    86    1
    12     6    17    2
    13     7    46    2
    14     8    47    1
    15     8    78    1
    16     8    92    1
    17     9    94    1
    18     9    97    1
    19     9    67    1
    20    10    25    1
    21    11    96    1
    22    11    73    1
    23    11    81    1
    24    12   105    1
    25    13    58    1
    26    13    36    1
    27    14    43    1
    28    14    66    1
    29    14    26    1
    30    15    66    1
    31    15   100    1
    32    16   102    2
    33    17    74    1
    34    17    84    2
    35    17    72    1
    36    18    78    1
    37    18    64    1
    38    19    96    1
    39    21    42    1
    40    21    37    1
    41    21    65    1
    42    22    99    1
    43    22   103    1
    44    22    79    1
    45    23   101    1
    46    23    62    1
    47    23    60    1
    48    24   103    1
    49    24    93    1
    50    24    95    1
    51    25    47    1
    52    26    29    1
    53    27    93    2
    54    28    38    1
    55    29    70    1
    56    29    38    1
    57    30    98    1
    58    30    40    1
    59    30    32    1
    60    30    31    1
    61    34    71    2
    62    35    37    1
    63    35    46    1
    64    36    71    1
    65    39    46    2
    66    41   102    1
    67    42    62    1
    68    43    87    1
    69    44    46    1
    70    45    57    1
    71    47    49    1
    72    48   101    1
    73    49    52    1
    74    50    93    1
    75    51    80    1
    76    51    90    1
    77    52    99    1
    78    52    95    1
    79    53   103    1
    80    53    94    1
    81    54    62    1
    82    55    71    2
    83    56    66    1
    84    56    70    1
    85    56    69    1
    86    57    67    1
    87    57    88    1
    88    57    83    1
    89    58    87    1
    90    58    68    1
    91    59    81    1
    92    59    92    1
    93    60   105    1
    94    61    64    2
    95    63    71    1
    96    64    89    2
    97    64    85    1
    98    65   101    1
    99    68    94    1
   100    73   102    1
   101    73    90    1
   102    74    80    1
   103    75   105    1
   104    76    97    1
   105    77   100    2
   106    80    96    1
   107    82   100    2
   108    87    97    1
   109    91   100    1
   110   104   105    1
   111     3   106    1
   112     8   107    1
   113     9   108    1
   114    10   109    1
   115    11   110    1
   116    12   111    1
   117    13   112    1
   118    13   113    1
   119    14   114    1
   120    19   115    1
   121    21   116    1
   122    22   117    1
   123    23   118    1
   124    24   119    1
   125    25   120    1
   126    28   121    1
   127    29   122    1
   128    31   123    1
   129    32   124    1
   130    37   125    1
   131    37   126    1
   132    40   127    1
   133    41   128    1
   134    42   129    1
   135    44   130    1
   136    45   131    1
   137    47   132    1
   138    48   133    1
   139    50   134    1
   140    51   135    1
   141    52   136    1
   142    54   137    1
   143    56   138    1
   144    58   139    1
   145    59   140    1
   146    60   141    1
   147    62   142    1
   148    63   143    1
   149    66   144    1
   150    67   145    1
   151    69   146    1
   152    70   147    1
   153    70   148    1
   154    72   149    1
   155    73   150    1
   156    75   151    1
   157    76   152    1
   158    78   153    1
   159    78   154    1
   160    79   155    1
   161    80   156    1
   162    83   157    1
   163    85   158    1
   164    86   159    1
   165    87   160    1
   166    88   161    1
   167    91   162    1
   168    94   163    1
   169    96   164    1
   170    97   165    1
   171    98   166    1
   172    99   167    1
   173   101   168    1
   174   103   169    1
   175   104   170    1
