@<TRIPOS>MOLECULE
4AK2_LIGAND_1_uncharged.pdb
 155 160 0 0 0
SMALL
GASTEIGER

@<TRIPOS>ATOM
      1  O2       -18.1650   -5.6450  -23.3310 O.3   1712  IDS1712    -0.2435
      2  O4        -8.1220  -10.8840  -24.7050 O.3   1709  SGN1709    -0.3401
      3  C2       -13.2690   -7.9100  -27.9710 C.3   1711  SGN1711     0.1081
      4  O61      -25.1660   -0.7070  -23.7280 O.2   1714  IDS1714    -0.2481
      5  S        -18.7390   -5.7880  -21.9170 S.3   1712  IDS1712    -0.0004
      6  O3S       -7.5970   -8.2030  -28.8370 O.2   1710  IDS1710    -0.3452
      7  O6S       -2.8010   -8.5660  -24.4650 O.2   1709  SGN1709    -0.3452
      8  C5       -14.6790   -8.7020  -25.5620 C.3   1711  SGN1711     0.1158
      9  C2       -19.3950   -1.2350  -23.5450 C.3   1713  SGN1713     0.1081
     10  O3       -14.0260   -5.6000  -27.6610 O.3   1711  SGN1711    -0.3874
     11  C4       -11.4120  -10.4070  -26.0860 C.3   1710  IDS1710     0.1267
     12  O1S       -8.8120  -13.7520  -18.1140 O.3   1709  SGN1709    -0.0534
     13  C6       -19.6250   -1.6050  -27.7460 C.3   1713  SGN1713     0.1035
     14  C1       -22.8680   -2.2220  -26.6460 C.3   1714  IDS1714     0.1913
     15  O2       -24.5780   -2.8150  -28.1860 O.3   1714  IDS1714    -0.2436
     16  O62      -11.9540   -9.0940  -22.9410 O.2   1710  IDS1710    -0.2480
     17  S         -8.1010   -7.5010  -27.6530 S.3   1710  IDS1710    -0.0004
     18  O6       -16.8570   -9.6050  -25.7640 O.3   1711  SGN1711    -0.2520
     19  O3        -9.8240  -12.0390  -26.8870 O.3   1710  IDS1710    -0.3863
     20  O2S      -17.8170   -6.6510  -21.1720 O.2   1712  IDS1712    -0.3452
     21  C5        -6.0530  -11.3090  -23.7070 C.3   1709  SGN1709     0.1158
     22  C3       -16.1190   -4.2250  -23.1920 C.3   1712  IDS1712     0.1174
     23  C2        -7.4080  -11.9820  -21.1800 C.3   1709  SGN1709     0.1079
     24  C5       -15.9300   -3.7560  -25.6040 C.3   1712  IDS1712     0.1863
     25  C3       -13.7340   -6.8260  -26.9820 C.3   1711  SGN1711     0.1055
     26  O5       -23.8170   -1.7170  -25.6900 O.3   1714  IDS1714    -0.3340
     27  O62      -16.6860   -2.9520  -27.7090 O.2   1712  IDS1712    -0.2480
     28  O62      -25.4800   -2.5980  -22.6590 O.3   1714  IDS1714    -0.4788
     29  C5       -24.1670   -2.6530  -24.6730 C.3   1714  IDS1714     0.1603
     30  S1       -11.8590   -7.9960  -30.2200 S.3   1711  SGN1711     0.0767
     31  O3S      -10.3170   -7.7240  -30.5120 O.3   1711  SGN1711    -0.0534
     32  O2S      -12.7440   -7.1510  -30.9610 O.3   1711  SGN1711    -0.0534
     33  O1S      -20.0610   -6.3880  -22.1410 O.2   1712  IDS1712    -0.3452
     34  O4S      -21.6790   -0.5050  -29.7330 O.2   1713  SGN1713    -0.3452
     35  O6        -3.9830  -10.6700  -24.7780 O.3   1709  SGN1709    -0.2520
     36  O6       -20.0830   -0.2470  -27.7740 O.3   1713  SGN1713    -0.2520
     37  C6        -5.2900  -10.2210  -24.4710 C.3   1709  SGN1709     0.1035
     38  C6       -24.9950   -1.9450  -23.6130 C.2   1714  IDS1714     0.3341
     39  O5S       -1.5540  -10.5270  -25.4620 O.2   1709  SGN1709    -0.3452
     40  O1S      -12.1490   -9.4130  -30.3180 O.3   1711  SGN1711    -0.0534
     41  O61      -12.9880  -10.9730  -23.4830 O.3   1710  IDS1710    -0.4788
     42  C4        -7.4830  -10.8420  -23.4180 C.3   1709  SGN1709     0.1176
     43  O4       -21.6980   -2.8110  -26.0500 O.3   1713  SGN1713    -0.3401
     44  O4S       -3.4010   -9.3420  -26.7460 O.3   1709  SGN1709    -0.2682
     45  O1S      -16.9830   -0.5810  -21.4580 O.3   1713  SGN1713    -0.0534
     46  S2        -2.9660   -9.6920  -25.3950 S.3   1709  SGN1709    -0.0008
     47  C4       -14.9880   -7.3460  -26.2590 C.3   1711  SGN1711     0.1176
     48  O1        -5.9570  -13.7150  -22.0780 O.3   1709  SGN1709    -0.3656
     49  O4       -15.1810   -6.5020  -25.1030 O.3   1711  SGN1711    -0.3401
     50  O61      -15.2890   -1.7120  -26.5540 O.3   1712  IDS1712    -0.4788
     51  C1        -8.7180   -9.6480  -25.1350 C.3   1710  IDS1710     0.1915
     52  C1       -16.5160   -6.0100  -25.0020 C.3   1712  IDS1712     0.1915
     53  O4       -17.7760   -2.8740  -24.2430 O.3   1712  IDS1712    -0.3406
     54  O3        -9.4730  -11.2520  -22.1150 O.3   1709  SGN1709    -0.3874
     55  O5S      -19.3390    0.0900  -30.1790 O.2   1713  SGN1713    -0.3452
     56  C3       -24.0880   -4.4470  -26.4900 C.3   1714  IDS1714     0.0912
     57  S1       -18.3890   -0.4970  -21.1830 S.3   1713  SGN1713     0.0767
     58  C5       -19.5040   -2.0510  -26.3200 C.3   1713  SGN1713     0.1158
     59  C1       -13.1050   -9.2810  -27.2850 C.3   1711  SGN1711     0.1795
     60  N         -7.9980  -12.9790  -20.2950 N.3   1709  SGN1709    -0.1775
     61  O6S      -19.0070  -10.4270  -26.3850 O.2   1711  SGN1711    -0.3452
     62  C3        -8.2020  -11.7930  -22.4780 C.3   1709  SGN1709     0.1055
     63  O6S      -20.8620    1.6780  -28.9250 O.3   1713  SGN1713    -0.2682
     64  S2       -18.2140  -10.1440  -25.2620 S.3   1711  SGN1711    -0.0008
     65  O5        -5.4040  -11.4550  -22.4430 O.3   1709  SGN1709    -0.3416
     66  C2       -23.5120   -3.3610  -27.3920 C.3   1714  IDS1714     0.1620
     67  N        -19.1350   -1.5270  -22.1560 N.3   1713  SGN1713    -0.1775
     68  O5       -18.4470   -1.2320  -25.7710 O.3   1713  SGN1713    -0.3413
     69  O3       -23.0590   -5.3960  -26.1690 O.3   1714  IDS1714    -0.3889
     70  C4       -24.7720   -3.9430  -25.2120 C.3   1714  IDS1714     0.0128
     71  S2       -20.5650    0.2850  -29.1690 S.3   1713  SGN1713    -0.0008
     72  O2S       -7.0970   -7.4590  -26.5700 O.3   1710  IDS1710    -0.2682
     73  C5       -10.9620  -10.4160  -24.6170 C.3   1710  IDS1710     0.1863
     74  O2        -9.2570   -8.4420  -27.1560 O.3   1710  IDS1710    -0.2435
     75  O2S       -6.4460  -13.6320  -18.4050 O.3   1709  SGN1709    -0.0534
     76  O3       -21.7370   -1.6310  -23.3150 O.3   1713  SGN1713    -0.3874
     77  O1S      -23.9130   -2.8180  -30.4720 O.2   1714  IDS1714    -0.3452
     78  C6       -15.8340   -9.3620  -24.8070 C.3   1711  SGN1711     0.1035
     79  O3       -14.7050   -4.4090  -23.0310 O.3   1712  IDS1712    -0.3863
     80  C2        -8.9980   -9.7570  -26.6430 C.3   1710  IDS1710     0.1644
     81  O4       -12.0020   -9.1360  -26.3860 O.3   1710  IDS1710    -0.3406
     82  O3S      -26.3270   -2.8330  -29.9310 O.2   1714  IDS1714    -0.3452
     83  O3S      -18.6360   -1.0180  -19.6840 O.3   1713  SGN1713    -0.0534
     84  O1S       -8.6540   -6.1760  -27.9480 O.2   1710  IDS1710    -0.3452
     85  O5S      -17.8660  -11.3740  -24.3100 O.3   1711  SGN1711    -0.2682
     86  O3S      -18.8090   -4.4110  -21.3430 O.3   1712  IDS1712    -0.2682
     87  C4       -20.7980   -1.8380  -25.4940 C.3   1713  SGN1713     0.1176
     88  O2S      -18.9630    0.7780  -21.5070 O.3   1713  SGN1713    -0.0534
     89  O4S      -18.7880   -9.0420  -24.4820 O.2   1711  SGN1711    -0.3452
     90  O5        -9.9410   -9.4150  -24.4380 O.3   1710  IDS1710    -0.3314
     91  O2S      -24.9540   -4.8010  -29.5350 O.3   1714  IDS1714    -0.2682
     92  O5       -14.3050   -9.6260  -26.6010 O.3   1711  SGN1711    -0.3413
     93  C6       -15.9800   -2.7440  -26.7060 C.2   1712  IDS1712     0.3367
     94  C1       -18.1540   -1.4950  -24.4070 C.3   1713  SGN1713     0.1795
     95  O5       -16.7180   -4.9180  -25.8870 O.3   1712  IDS1712    -0.3314
     96  C3       -10.1930  -10.6620  -26.9780 C.3   1710  IDS1710     0.1174
     97  C3       -20.5670   -2.0810  -24.0050 C.3   1713  SGN1713     0.1055
     98  N        -12.0430   -7.5570  -28.6840 N.3   1711  SGN1711    -0.1775
     99  C2       -16.7520   -5.5880  -23.5750 C.3   1712  IDS1712     0.1644
    100  S        -24.9720   -3.3160  -29.5870 S.3   1714  IDS1714    -0.0004
    101  C1        -5.9780  -12.3970  -21.5380 C.3   1709  SGN1709     0.1762
    102  C6       -12.0480  -10.1570  -23.6060 C.2   1710  IDS1710     0.3367
    103  C4       -16.3740   -3.1690  -24.2580 C.3   1712  IDS1712     0.1267
    104  O3S       -7.6980  -11.5470  -18.2450 O.3   1709  SGN1709    -0.0534
    105  S1        -7.7160  -13.0350  -18.7270 S.3   1709  SGN1709     0.0767
    106  H        -14.0500   -7.9790  -28.6990 H     1711  SGN1711     0.0554
    107  H        -13.9290   -8.4840  -24.8310 H     1711  SGN1711     0.0648
    108  H        -19.6370   -0.1980  -23.6530 H     1713  SGN1713     0.0554
    109  H        -13.2280   -5.2820  -28.1130 H     1711  SGN1711     0.2100
    110  H        -12.1380  -11.1730  -26.2620 H     1710  IDS1710     0.0656
    111  H        -20.3260   -2.2300  -28.2590 H     1713  SGN1713     0.0610
    112  H        -18.6720   -1.6750  -28.2280 H     1713  SGN1713     0.0610
    113  H        -22.5850   -1.3830  -27.2470 H     1714  IDS1714     0.0939
    114  H        -10.5900  -12.5940  -27.1020 H     1710  IDS1710     0.2100
    115  H         -6.0720  -12.2140  -24.2770 H     1709  SGN1709     0.0648
    116  H        -16.5660   -3.8840  -22.2820 H     1712  IDS1712     0.0649
    117  H         -7.4200  -11.0520  -20.6510 H     1709  SGN1709     0.0554
    118  H        -14.9020   -4.0470  -25.5380 H     1712  IDS1712     0.0742
    119  H        -12.9540   -6.6240  -26.2780 H     1711  SGN1711     0.0638
    120  H        -25.3340   -3.5220  -22.6020 H     1714  IDS1714     0.2951
    121  H        -23.2750   -3.0060  -24.1990 H     1714  IDS1714     0.0715
    122  H         -5.2290   -9.3400  -23.8660 H     1709  SGN1709     0.0610
    123  H         -5.8090  -10.0020  -25.3810 H     1709  SGN1709     0.0610
    124  H        -13.0050  -11.7500  -24.0060 H     1710  IDS1710     0.2951
    125  H         -7.4980   -9.8790  -22.9520 H     1709  SGN1709     0.0650
    126  H        -15.7890   -7.3920  -26.9670 H     1711  SGN1711     0.0650
    127  H         -6.3530  -14.3310  -21.4420 H     1709  SGN1709     0.2125
    128  H        -14.7740   -1.6030  -25.7790 H     1712  IDS1712     0.2951
    129  H         -8.0550   -8.8340  -24.9300 H     1710  IDS1710     0.0939
    130  H        -17.2100   -6.7770  -25.2780 H     1712  IDS1712     0.0939
    131  H         -9.9260  -11.8650  -21.5150 H     1709  SGN1709     0.2100
    132  H        -24.8730   -4.9070  -27.0530 H     1714  IDS1714     0.0622
    133  H        -19.3100   -3.1030  -26.2790 H     1713  SGN1713     0.0648
    134  H        -12.9180  -10.0690  -27.9840 H     1711  SGN1711     0.0927
    135  H         -7.7100  -13.8850  -20.6630 H     1709  SGN1709     0.1487
    136  H         -8.3100  -12.7270  -22.9880 H     1709  SGN1709     0.0638
    137  H        -22.7500   -3.8280  -27.9800 H     1714  IDS1714     0.0697
    138  H        -18.5770   -2.3810  -22.1460 H     1713  SGN1713     0.1487
    139  H        -22.3600   -4.9560  -25.6600 H     1714  IDS1714     0.2099
    140  H        -25.8060   -3.7700  -25.4260 H     1714  IDS1714     0.0321
    141  H        -24.6360   -4.6940  -24.4620 H     1714  IDS1714     0.0321
    142  H        -10.6140  -11.4110  -24.4340 H     1710  IDS1710     0.0742
    143  H        -21.6240   -1.7710  -22.3620 H     1713  SGN1713     0.2100
    144  H        -16.1940   -8.7100  -24.0390 H     1711  SGN1711     0.0610
    145  H        -15.5200  -10.2710  -24.3380 H     1711  SGN1711     0.0610
    146  H        -14.3220   -4.7180  -23.8670 H     1712  IDS1712     0.2100
    147  H         -8.1340  -10.2000  -27.0940 H     1710  IDS1710     0.0698
    148  H        -21.1690   -0.8360  -25.5510 H     1713  SGN1713     0.0650
    149  H        -17.3530   -0.8530  -24.1040 H     1713  SGN1713     0.0927
    150  H        -10.4730  -10.4200  -27.9820 H     1710  IDS1710     0.0649
    151  H        -20.3700   -3.1150  -23.8140 H     1713  SGN1713     0.0638
    152  H        -11.2690   -7.9700  -28.1640 H     1711  SGN1711     0.1487
    153  H        -16.2400   -6.2700  -22.9280 H     1712  IDS1712     0.0698
    154  H         -5.3870  -12.4040  -20.6460 H     1709  SGN1709     0.0925
    155  H        -15.8310   -2.2630  -24.0850 H     1712  IDS1712     0.0656
@<TRIPOS>BOND
     1     1    99    1
     2     1     5    1
     3     2    42    1
     4     2    51    1
     5     3    59    1
     6     3    25    1
     7     3    98    1
     8     3   106    1
     9     4    38    2
    10     5    33    2
    11     5    20    2
    12     5    86    1
    13     6    17    2
    14     7    46    2
    15     8    47    1
    16     8    78    1
    17     8    92    1
    18     8   107    1
    19     9    94    1
    20     9    97    1
    21     9    67    1
    22     9   108    1
    23    10    25    1
    24    10   109    1
    25    11    96    1
    26    11    73    1
    27    11    81    1
    28    11   110    1
    29    12   105    1
    30    13    58    1
    31    13    36    1
    32    13   111    1
    33    13   112    1
    34    14    43    1
    35    14    66    1
    36    14    26    1
    37    14   113    1
    38    15    66    1
    39    15   100    1
    40    16   102    2
    41    17    74    1
    42    17    84    2
    43    17    72    1
    44    18    78    1
    45    18    64    1
    46    19    96    1
    47    19   114    1
    48    21    42    1
    49    21    37    1
    50    21    65    1
    51    21   115    1
    52    22    99    1
    53    22   103    1
    54    22    79    1
    55    22   116    1
    56    23   101    1
    57    23    62    1
    58    23    60    1
    59    23   117    1
    60    24   103    1
    61    24    93    1
    62    24    95    1
    63    24   118    1
    64    25    47    1
    65    25   119    1
    66    26    29    1
    67    27    93    2
    68    28    38    1
    69    28   120    1
    70    29    70    1
    71    29    38    1
    72    29   121    1
    73    30    98    1
    74    30    40    1
    75    30    32    1
    76    30    31    1
    77    34    71    2
    78    35    37    1
    79    35    46    1
    80    36    71    1
    81    37   122    1
    82    37   123    1
    83    39    46    2
    84    41   102    1
    85    41   124    1
    86    42    62    1
    87    42   125    1
    88    43    87    1
    89    44    46    1
    90    45    57    1
    91    47    49    1
    92    47   126    1
    93    48   101    1
    94    48   127    1
    95    49    52    1
    96    50    93    1
    97    50   128    1
    98    51    80    1
    99    51    90    1
   100    51   129    1
   101    52    99    1
   102    52    95    1
   103    52   130    1
   104    53   103    1
   105    53    94    1
   106    54    62    1
   107    54   131    1
   108    55    71    2
   109    56    66    1
   110    56    70    1
   111    56    69    1
   112    56   132    1
   113    57    67    1
   114    57    88    1
   115    57    83    1
   116    58    87    1
   117    58    68    1
   118    58   133    1
   119    59    81    1
   120    59    92    1
   121    59   134    1
   122    60   105    1
   123    60   135    1
   124    61    64    2
   125    62   136    1
   126    63    71    1
   127    64    89    2
   128    64    85    1
   129    65   101    1
   130    66   137    1
   131    67   138    1
   132    68    94    1
   133    69   139    1
   134    70   140    1
   135    70   141    1
   136    73   102    1
   137    73    90    1
   138    73   142    1
   139    74    80    1
   140    75   105    1
   141    76    97    1
   142    76   143    1
   143    77   100    2
   144    78   144    1
   145    78   145    1
   146    79   146    1
   147    80    96    1
   148    80   147    1
   149    82   100    2
   150    87    97    1
   151    87   148    1
   152    91   100    1
   153    94   149    1
   154    96   150    1
   155    97   151    1
   156    98   152    1
   157    99   153    1
   158   101   154    1
   159   103   155    1
   160   104   105    1
