@<TRIPOS>MOLECULE
4C4M_LIGAND_1.pdb
 104 107 0 0 0
SMALL
GASTEIGER

@<TRIPOS>ATOM
      1  C1         4.6920   14.6360   -2.0990 C.3   1198  ASG1198     0.1808
      2  C4        11.9960   12.0330   -1.7650 C.3   1196  ASG1196     0.1459
      3  O2        -0.2550   17.1960    1.0400 O.3   1199  BDP1199    -0.3842
      4  C3        -2.0770   15.6440    0.7790 C.3   1199  BDP1199     0.0887
      5  O5        -0.4440   14.1950   -1.0910 O.3   1199  BDP1199    -0.3341
      6  O1         5.9550   15.3200   -2.0330 O.3   1198  ASG1198    -0.3403
      7  O6B       -3.0500   13.0240   -2.3610 O.2   1199  BDP1199    -0.2481
      8  O5         4.3650   14.4320   -3.4770 O.3   1198  ASG1198    -0.3411
      9  O6A       -1.7160   11.4560   -1.6030 O.3   1199  BDP1199    -0.4788
     10  N          3.7580   15.2150    0.0380 N.am  1198  ASG1198    -0.3053
     11  C1        10.1350   14.7150   -2.4920 C.3   1197  BDP1197     0.1890
     12  OSC        1.5690   17.7080   -5.5140 O.2   1198  ASG1198    -0.1181
     13  C2         3.6010   15.4670   -1.3910 C.3   1198  ASG1198     0.1027
     14  C5        -1.6190   13.5800   -0.5500 C.3   1199  BDP1199     0.1603
     15  O7         3.7060   15.8940    2.1560 O.2   1198  ASG1198    -0.2761
     16  C2        -0.8730   16.3020    0.1100 C.3   1199  BDP1199     0.1317
     17  C8         3.2060   17.5360    0.5180 C.3   1198  ASG1198     0.0122
     18  C2         9.3430   15.1200   -3.7360 C.3   1197  BDP1197     0.1342
     19  C3         2.1800   14.9620   -1.6870 C.3   1198  ASG1198     0.1156
     20  C6        -2.1700   12.6220   -1.5690 C.2   1199  BDP1199     0.3341
     21  C5         8.0190   14.2830   -1.3040 C.3   1197  BDP1197     0.1863
     22  C1        14.5840   13.0750   -1.1830 C.3   1196  ASG1196     0.1777
     23  OSB       12.0800   10.7250   -5.2580 O.2   1196  ASG1196    -0.1181
     24  N         14.0530   15.0900   -2.3000 N.am  1196  ASG1196    -0.3053
     25  C6        12.6710   10.0180   -0.3720 C.3   1196  ASG1196     0.0731
     26  C6         7.3450   13.1060   -0.6660 C.2   1197  BDP1197     0.3367
     27  O2        10.0630   16.1380   -4.4450 O.3   1197  BDP1197    -0.3841
     28  C6         2.9160   13.4170   -5.1350 C.3   1198  ASG1198     0.0731
     29  C4         1.9920   14.7320   -3.1810 C.3   1198  ASG1198     0.1459
     30  S         11.7800   10.4220   -3.8400 S.O2  1196  ASG1196     0.2079
     31  O1        15.9680   13.1860   -1.5300 O.3   1196  ASG1196    -0.3654
     32  O4         2.1310   15.9980   -3.8340 O.3   1198  ASG1198    -0.2071
     33  OSB       -0.0280   17.1790   -3.7790 O.2   1198  ASG1198    -0.1181
     34  C7        14.6400   15.6620   -3.3520 C.2   1196  ASG1196     0.2104
     35  O3        -3.0770   16.6180    1.1030 O.3   1199  BDP1199    -0.3890
     36  C3        12.2440   13.5270   -1.9340 C.3   1196  ASG1196     0.1156
     37  OSA       10.3160   10.4920   -3.6240 O.2   1196  ASG1196    -0.1181
     38  C1         0.1570   15.2670   -0.3520 C.3   1199  BDP1199     0.1888
     39  O6A        6.8810   13.2230    0.4900 O.2   1197  BDP1197    -0.2480
     40  C5         3.0960   13.8000   -3.6710 C.3   1198  ASG1198     0.1156
     41  O5        14.2740   11.6910   -1.0390 O.3   1196  ASG1196    -0.3413
     42  C5        12.9080   11.4930   -0.6660 C.3   1196  ASG1196     0.1156
     43  O4        12.5130   11.4580   -2.9730 O.3   1196  ASG1196    -0.2071
     44  C4         7.1580   14.6760   -2.5030 C.3   1197  BDP1197     0.1266
     45  O6         1.5180   13.3130   -5.4020 O.3   1198  ASG1198    -0.3924
     46  C4        -2.6770   14.6050   -0.1550 C.3   1199  BDP1199     0.0127
     47  C3         7.9230   15.6090   -3.4410 C.3   1197  BDP1197     0.1149
     48  O6        13.8120    9.4990    0.3200 O.3   1196  ASG1196    -0.3924
     49  O1         1.1630   15.8500   -1.1930 O.3   1199  BDP1199    -0.3407
     50  OSA        0.3860   15.5970   -5.5500 O.3   1198  ASG1198    -0.2311
     51  O6B        7.2660   12.0520   -1.3340 O.3   1197  BDP1197    -0.4788
     52  C7         3.5710   16.1520    0.9730 C.2   1198  ASG1198     0.2104
     53  S          1.0050   16.6220   -4.6800 S.O2  1198  ASG1198     0.2079
     54  O1        11.3410   14.0520   -2.9200 O.3   1197  BDP1197    -0.3407
     55  OSC       12.2970    9.0680   -3.5240 O.3   1196  ASG1196    -0.2311
     56  O5         9.3520   13.8660   -1.6430 O.3   1197  BDP1197    -0.3315
     57  C8        14.9200   14.7780   -4.5300 C.3   1196  ASG1196     0.0122
     58  O3         7.2180   15.6920   -4.6870 O.3   1197  BDP1197    -0.3864
     59  O7        14.9300   16.8470   -3.3640 O.2   1196  ASG1196    -0.2761
     60  C2        13.7220   13.6700   -2.2990 C.3   1196  ASG1196     0.1025
     61 H           4.7538   13.6906   -1.6017 H     1198  ASG1198     0.0930
     62 H          10.9683   11.8259   -1.5510 H     1196  ASG1196     0.0675
     63 H          -0.9035   17.8539    1.3358 H     1199  BDP1199     0.2101
     64 H          -1.7450   15.1768    1.6825 H     1199  BDP1199     0.0622
     65 H          -1.0564   11.1921   -0.9921 H     1199  BDP1199     0.2951
     66 H           4.0144   14.3097    0.3278 H     1198  ASG1198     0.1492
     67 H          10.3859   15.5840   -1.9203 H     1197  BDP1197     0.0938
     68 H           3.7086   16.4823   -1.7111 H     1198  ASG1198     0.0575
     69 H          -1.3495   13.0587    0.3447 H     1199  BDP1199     0.0715
     70 H          -1.2196   16.8307   -0.7533 H     1199  BDP1199     0.0670
     71 H           3.1366   17.5538   -0.5496 H     1198  ASG1198     0.0322
     72 H           3.9580   18.2266    0.8381 H     1198  ASG1198     0.0322
     73 H           2.2634   17.8136    0.9414 H     1198  ASG1198     0.0322
     74 H           9.2365   14.2354   -4.3284 H     1197  BDP1197     0.0671
     75 H           2.0704   14.0329   -1.1676 H     1198  ASG1198     0.0645
     76 H           8.1095   15.1452   -0.6768 H     1197  BDP1197     0.0742
     77 H          14.3891   13.6025   -0.2727 H     1196  ASG1196     0.0928
     78 H          13.8392   15.6366   -1.5095 H     1196  ASG1196     0.1492
     79 H          12.5335    9.4854   -1.2898 H     1196  ASG1196     0.0584
     80 H          11.7949    9.9026    0.2314 H     1196  ASG1196     0.0584
     81 H          10.1441   16.9260   -3.8852 H     1197  BDP1197     0.2101
     82 H           3.3914   12.4773   -5.3243 H     1198  ASG1198     0.0584
     83 H           3.3580   14.1585   -5.7672 H     1198  ASG1198     0.0584
     84 H           1.0345   14.3013   -3.3873 H     1198  ASG1198     0.0675
     85 H          16.1339   12.7049   -2.3558 H     1196  ASG1196     0.2125
     86 H          -3.3850   17.0479    0.2899 H     1199  BDP1199     0.2099
     87 H          12.0532   14.0948   -1.0473 H     1196  ASG1196     0.0645
     88 H           0.5965   14.8905    0.5480 H     1199  BDP1199     0.0938
     89 H           3.0451   12.8953   -3.1020 H     1198  ASG1198     0.0648
     90 H          12.6782   12.0340    0.2281 H     1196  ASG1196     0.0648
     91 H           6.9033   13.7933   -3.0515 H     1197  BDP1197     0.0655
     92 H           1.1277   12.6388   -4.8240 H     1198  ASG1198     0.2095
     93 H          -3.0447   15.0906   -1.0347 H     1199  BDP1199     0.0321
     94 H          -3.4783   14.1045    0.3474 H     1199  BDP1199     0.0321
     95 H           7.9932   16.5588   -2.9533 H     1197  BDP1197     0.0648
     96 H          14.6019    9.6069   -0.2325 H     1196  ASG1196     0.2095
     97 H           1.0585   15.2277   -6.1435 H     1198  ASG1198     0.2469
     98 H           7.6301   12.0156   -2.1966 H     1197  BDP1197     0.2951
     99 H          13.2553    9.0451   -3.6722 H     1196  ASG1196     0.2469
    100 H          14.5909   13.7828   -4.3153 H     1196  ASG1196     0.0322
    101 H          15.9714   14.7709   -4.7287 H     1196  ASG1196     0.0322
    102 H          14.3976   15.1494   -5.3868 H     1196  ASG1196     0.0322
    103 H           7.1773   14.8128   -5.0946 H     1197  BDP1197     0.2100
    104 H          13.8937   13.1914   -3.2405 H     1196  ASG1196     0.0575
@<TRIPOS>BOND
     1     1    13    1
     2     1     6    1
     3     1     8    1
     4     2    36    1
     5     2    42    1
     6     2    43    1
     7     3    16    1
     8     4    16    1
     9     4    46    1
    10     4    35    1
    11     5    38    1
    12     5    14    1
    13     6    44    1
    14     7    20    2
    15     8    40    1
    16     9    20    1
    17    10    13    1
    18    10    52   am
    19    11    18    1
    20    11    56    1
    21    11    54    1
    22    12    53    2
    23    13    19    1
    24    14    46    1
    25    14    20    1
    26    15    52    2
    27    16    38    1
    28    17    52    1
    29    18    47    1
    30    18    27    1
    31    19    29    1
    32    19    49    1
    33    21    44    1
    34    21    26    1
    35    21    56    1
    36    22    60    1
    37    22    31    1
    38    22    41    1
    39    23    30    2
    40    24    60    1
    41    24    34   am
    42    25    42    1
    43    25    48    1
    44    26    39    2
    45    26    51    1
    46    28    40    1
    47    28    45    1
    48    29    40    1
    49    29    32    1
    50    30    43    1
    51    30    37    2
    52    30    55    1
    53    32    53    1
    54    33    53    2
    55    34    57    1
    56    34    59    2
    57    36    60    1
    58    36    54    1
    59    38    49    1
    60    41    42    1
    61    44    47    1
    62    47    58    1
    63    50    53    1
    64     1    61    1
    65     2    62    1
    66     3    63    1
    67     4    64    1
    68     9    65    1
    69    10    66    1
    70    11    67    1
    71    13    68    1
    72    14    69    1
    73    16    70    1
    74    17    71    1
    75    17    72    1
    76    17    73    1
    77    18    74    1
    78    19    75    1
    79    21    76    1
    80    22    77    1
    81    24    78    1
    82    25    79    1
    83    25    80    1
    84    27    81    1
    85    28    82    1
    86    28    83    1
    87    29    84    1
    88    31    85    1
    89    35    86    1
    90    36    87    1
    91    38    88    1
    92    40    89    1
    93    42    90    1
    94    44    91    1
    95    45    92    1
    96    46    93    1
    97    46    94    1
    98    47    95    1
    99    48    96    1
   100    50    97    1
   101    51    98    1
   102    55    99    1
   103    57   100    1
   104    57   101    1
   105    57   102    1
   106    58   103    1
   107    60   104    1
