@<TRIPOS>MOLECULE
4C4M_LIGAND_1_uncharged.pdb
 102 105 0 0 0
SMALL
GASTEIGER

@<TRIPOS>ATOM
      1  C1         4.6920   14.6360   -2.0990 C.3   1198  ASG1198     0.1808
      2  C4        11.9960   12.0330   -1.7650 C.3   1196  ASG1196     0.1419
      3  O2        -0.2550   17.1960    1.0400 O.3   1199  BDP1199    -0.3842
      4  C3        -2.0770   15.6440    0.7790 C.3   1199  BDP1199     0.0887
      5  O5        -0.4440   14.1950   -1.0910 O.3   1199  BDP1199    -0.3341
      6  O1         5.9550   15.3200   -2.0330 O.3   1198  ASG1198    -0.3403
      7  O6B       -3.0500   13.0240   -2.3610 O.2   1199  BDP1199    -0.2481
      8  O5         4.3650   14.4320   -3.4770 O.3   1198  ASG1198    -0.3411
      9  O6A       -1.7160   11.4560   -1.6030 O.3   1199  BDP1199    -0.4788
     10  N          3.7580   15.2150    0.0380 N.am  1198  ASG1198    -0.3053
     11  C1        10.1350   14.7150   -2.4920 C.3   1197  BDP1197     0.1890
     12  OSC        1.5690   17.7080   -5.5140 O.2   1198  ASG1198    -0.3452
     13  C2         3.6010   15.4670   -1.3910 C.3   1198  ASG1198     0.1027
     14  C5        -1.6190   13.5800   -0.5500 C.3   1199  BDP1199     0.1603
     15  O7         3.7060   15.8940    2.1560 O.2   1198  ASG1198    -0.2761
     16  C2        -0.8730   16.3020    0.1100 C.3   1199  BDP1199     0.1317
     17  C8         3.2060   17.5360    0.5180 C.3   1198  ASG1198     0.0122
     18  C2         9.3430   15.1200   -3.7360 C.3   1197  BDP1197     0.1342
     19  C3         2.1800   14.9620   -1.6870 C.3   1198  ASG1198     0.1155
     20  C6        -2.1700   12.6220   -1.5690 C.2   1199  BDP1199     0.3341
     21  C5         8.0190   14.2830   -1.3040 C.3   1197  BDP1197     0.1863
     22  C1        14.5840   13.0750   -1.1830 C.3   1196  ASG1196     0.1777
     23  OSB       12.0800   10.7250   -5.2580 O.2   1196  ASG1196    -0.3452
     24  N         14.0530   15.0900   -2.3000 N.am  1196  ASG1196    -0.3053
     25  C6        12.6710   10.0180   -0.3720 C.3   1196  ASG1196     0.0731
     26  C6         7.3450   13.1060   -0.6660 C.2   1197  BDP1197     0.3367
     27  O2        10.0630   16.1380   -4.4450 O.3   1197  BDP1197    -0.3841
     28  C6         2.9160   13.4170   -5.1350 C.3   1198  ASG1198     0.0731
     29  C4         1.9920   14.7320   -3.1810 C.3   1198  ASG1198     0.1419
     30  S         11.7800   10.4220   -3.8400 S.3   1196  ASG1196    -0.0004
     31  O1        15.9680   13.1860   -1.5300 O.3   1196  ASG1196    -0.3654
     32  O4         2.1310   15.9980   -3.8340 O.3   1198  ASG1198    -0.2460
     33  OSB       -0.0280   17.1790   -3.7790 O.2   1198  ASG1198    -0.3452
     34  C7        14.6400   15.6620   -3.3520 C.2   1196  ASG1196     0.2104
     35  O3        -3.0770   16.6180    1.1030 O.3   1199  BDP1199    -0.3890
     36  C3        12.2440   13.5270   -1.9340 C.3   1196  ASG1196     0.1155
     37  OSA       10.3160   10.4920   -3.6240 O.2   1196  ASG1196    -0.3452
     38  C1         0.1570   15.2670   -0.3520 C.3   1199  BDP1199     0.1888
     39  O6A        6.8810   13.2230    0.4900 O.2   1197  BDP1197    -0.2480
     40  C5         3.0960   13.8000   -3.6710 C.3   1198  ASG1198     0.1155
     41  O5        14.2740   11.6910   -1.0390 O.3   1196  ASG1196    -0.3413
     42  C5        12.9080   11.4930   -0.6660 C.3   1196  ASG1196     0.1154
     43  O4        12.5130   11.4580   -2.9730 O.3   1196  ASG1196    -0.2460
     44  C4         7.1580   14.6760   -2.5030 C.3   1197  BDP1197     0.1266
     45  O6         1.5180   13.3130   -5.4020 O.3   1198  ASG1198    -0.3924
     46  C4        -2.6770   14.6050   -0.1550 C.3   1199  BDP1199     0.0127
     47  C3         7.9230   15.6090   -3.4410 C.3   1197  BDP1197     0.1149
     48  O6        13.8120    9.4990    0.3200 O.3   1196  ASG1196    -0.3924
     49  O1         1.1630   15.8500   -1.1930 O.3   1199  BDP1199    -0.3407
     50  OSA        0.3860   15.5970   -5.5500 O.3   1198  ASG1198    -0.2682
     51  O6B        7.2660   12.0520   -1.3340 O.3   1197  BDP1197    -0.4788
     52  C7         3.5710   16.1520    0.9730 C.2   1198  ASG1198     0.2104
     53  S          1.0050   16.6220   -4.6800 S.3   1198  ASG1198    -0.0004
     54  O1        11.3410   14.0520   -2.9200 O.3   1197  BDP1197    -0.3407
     55  OSC       12.2970    9.0680   -3.5240 O.3   1196  ASG1196    -0.2682
     56  O5         9.3520   13.8660   -1.6430 O.3   1197  BDP1197    -0.3315
     57  C8        14.9200   14.7780   -4.5300 C.3   1196  ASG1196     0.0122
     58  O3         7.2180   15.6920   -4.6870 O.3   1197  BDP1197    -0.3864
     59  O7        14.9300   16.8470   -3.3640 O.2   1196  ASG1196    -0.2761
     60  C2        13.7220   13.6700   -2.2990 C.3   1196  ASG1196     0.1025
     61  H          4.7540   13.6910   -1.6020 H     1198  ASG1198     0.0930
     62  H         10.9680   11.8260   -1.5510 H     1196  ASG1196     0.0673
     63  H         -0.9030   17.8540    1.3360 H     1199  BDP1199     0.2101
     64  H         -1.7450   15.1770    1.6830 H     1199  BDP1199     0.0622
     65  H         -1.0560   11.1920   -0.9920 H     1199  BDP1199     0.2951
     66  H          4.0140   14.3100    0.3280 H     1198  ASG1198     0.1492
     67  H         10.3860   15.5840   -1.9200 H     1197  BDP1197     0.0938
     68  H          3.7090   16.4820   -1.7110 H     1198  ASG1198     0.0575
     69  H         -1.3490   13.0590    0.3450 H     1199  BDP1199     0.0715
     70  H         -1.2200   16.8310   -0.7530 H     1199  BDP1199     0.0670
     71  H          3.1370   17.5540   -0.5500 H     1198  ASG1198     0.0322
     72  H          3.9580   18.2270    0.8380 H     1198  ASG1198     0.0322
     73  H          2.2630   17.8140    0.9410 H     1198  ASG1198     0.0322
     74  H          9.2360   14.2350   -4.3280 H     1197  BDP1197     0.0671
     75  H          2.0700   14.0330   -1.1680 H     1198  ASG1198     0.0645
     76  H          8.1100   15.1450   -0.6770 H     1197  BDP1197     0.0742
     77  H         14.3890   13.6020   -0.2730 H     1196  ASG1196     0.0928
     78  H         13.8390   15.6370   -1.5100 H     1196  ASG1196     0.1492
     79  H         12.5340    9.4850   -1.2900 H     1196  ASG1196     0.0584
     80  H         11.7950    9.9030    0.2310 H     1196  ASG1196     0.0584
     81  H         10.1440   16.9260   -3.8850 H     1197  BDP1197     0.2101
     82  H          3.3910   12.4770   -5.3240 H     1198  ASG1198     0.0584
     83  H          3.3580   14.1590   -5.7670 H     1198  ASG1198     0.0584
     84  H          1.0340   14.3010   -3.3870 H     1198  ASG1198     0.0673
     85  H         16.1340   12.7050   -2.3560 H     1196  ASG1196     0.2125
     86  H         -3.3850   17.0480    0.2900 H     1199  BDP1199     0.2099
     87  H         12.0530   14.0950   -1.0470 H     1196  ASG1196     0.0645
     88  H          0.5970   14.8900    0.5480 H     1199  BDP1199     0.0938
     89  H          3.0450   12.8950   -3.1020 H     1198  ASG1198     0.0648
     90  H         12.6780   12.0340    0.2280 H     1196  ASG1196     0.0648
     91  H          6.9030   13.7930   -3.0510 H     1197  BDP1197     0.0655
     92  H          1.1280   12.6390   -4.8240 H     1198  ASG1198     0.2095
     93  H         -3.0450   15.0910   -1.0350 H     1199  BDP1199     0.0321
     94  H         -3.4780   14.1040    0.3470 H     1199  BDP1199     0.0321
     95  H          7.9930   16.5590   -2.9530 H     1197  BDP1197     0.0648
     96  H         14.6020    9.6070   -0.2330 H     1196  ASG1196     0.2095
     97  H          7.6300   12.0160   -2.1970 H     1197  BDP1197     0.2951
     98  H         14.5910   13.7830   -4.3150 H     1196  ASG1196     0.0322
     99  H         15.9710   14.7710   -4.7290 H     1196  ASG1196     0.0322
    100  H         14.3980   15.1490   -5.3870 H     1196  ASG1196     0.0322
    101  H          7.1770   14.8130   -5.0950 H     1197  BDP1197     0.2100
    102  H         13.8940   13.1910   -3.2400 H     1196  ASG1196     0.0575
@<TRIPOS>BOND
     1     1    13    1
     2     1     6    1
     3     1     8    1
     4     1    61    1
     5     2    36    1
     6     2    42    1
     7     2    43    1
     8     2    62    1
     9     3    16    1
    10     3    63    1
    11     4    16    1
    12     4    46    1
    13     4    35    1
    14     4    64    1
    15     5    38    1
    16     5    14    1
    17     6    44    1
    18     7    20    2
    19     8    40    1
    20     9    20    1
    21     9    65    1
    22    10    13    1
    23    10    52   am
    24    10    66    1
    25    11    18    1
    26    11    56    1
    27    11    54    1
    28    11    67    1
    29    12    53    2
    30    13    19    1
    31    13    68    1
    32    14    46    1
    33    14    20    1
    34    14    69    1
    35    15    52    2
    36    16    38    1
    37    16    70    1
    38    17    52    1
    39    17    71    1
    40    17    72    1
    41    17    73    1
    42    18    47    1
    43    18    27    1
    44    18    74    1
    45    19    29    1
    46    19    49    1
    47    19    75    1
    48    21    44    1
    49    21    26    1
    50    21    56    1
    51    21    76    1
    52    22    60    1
    53    22    31    1
    54    22    41    1
    55    22    77    1
    56    23    30    2
    57    24    60    1
    58    24    34   am
    59    24    78    1
    60    25    42    1
    61    25    48    1
    62    25    79    1
    63    25    80    1
    64    26    39    2
    65    26    51    1
    66    27    81    1
    67    28    40    1
    68    28    45    1
    69    28    82    1
    70    28    83    1
    71    29    40    1
    72    29    32    1
    73    29    84    1
    74    30    43    1
    75    30    37    2
    76    30    55    1
    77    31    85    1
    78    32    53    1
    79    33    53    2
    80    34    57    1
    81    34    59    2
    82    35    86    1
    83    36    60    1
    84    36    54    1
    85    36    87    1
    86    38    49    1
    87    38    88    1
    88    40    89    1
    89    41    42    1
    90    42    90    1
    91    44    47    1
    92    44    91    1
    93    45    92    1
    94    46    93    1
    95    46    94    1
    96    47    58    1
    97    47    95    1
    98    48    96    1
    99    50    53    1
   100    51    97    1
   101    57    98    1
   102    57    99    1
   103    57   100    1
   104    58   101    1
   105    60   102    1
