@<TRIPOS>MOLECULE
4DY0_LIGAND_1.pdb
 58 59 0 0 0
SMALL
GASTEIGER

@<TRIPOS>ATOM
      1  O1S       33.2420  -67.0130   69.7730 O.2   402  IDS402     -0.1181
      2  C4        28.6100  -68.3180   70.7260 C.3   402  IDS402      0.1267
      3  O1S       24.8640  -65.5620   66.4280 O.3   403  SGN403     -0.2626
      4  O2        31.9360  -69.0400   69.0790 O.3   402  IDS402     -0.2047
      5  N         25.6650  -66.8180   68.5620 N.3   403  SGN403     -0.1846
      6  S2        26.4220  -70.7940   74.0190 S.O2  403  SGN403      0.2076
      7  C5        29.2210  -67.3440   71.7370 C.3   402  IDS402      0.1863
      8  O62       27.8710  -66.1240   73.2950 O.2   402  IDS402     -0.2480
      9  O1        31.7200  -68.3300   72.4160 O.3   402  IDS402     -0.3648
     10  S1        25.6260  -66.8000   66.9080 S.3   403  SGN403     -0.0198
     11  O3S       24.9200  -68.0600   66.3990 O.3   403  SGN403     -0.2626
     12  C2        25.2830  -68.1480   69.0670 C.3   403  SGN403      0.1054
     13  C3        29.6100  -68.5960   69.6020 C.3   402  IDS402      0.1175
     14  O2S       27.0530  -66.7610   66.3540 O.3   403  SGN403     -0.2626
     15  C1        26.4070  -68.7630   69.8970 C.3   403  SGN403      0.1793
     16  C1        31.4490  -67.7860   71.1040 C.3   402  IDS402      0.1886
     17  O1        27.4020  -67.7530   70.1770 O.3   403  SGN403     -0.3406
     18  O3        23.4110  -69.3970   69.9890 O.3   403  SGN403     -0.3899
     19  O6S       27.0480  -69.7920   74.9920 O.3   403  SGN403     -0.2311
     20  O2S       34.2820  -69.2900   69.9710 O.2   402  IDS402     -0.1181
     21  O3        29.1620  -69.7180   68.8300 O.3   402  IDS402     -0.3863
     22  O4S       26.0060  -72.0500   74.7850 O.2   403  SGN403     -0.1181
     23  O5        30.4230  -66.7770   71.1840 O.3   402  IDS402     -0.3316
     24  C4        24.2300  -67.5070   71.2780 C.3   403  SGN403      0.0036
     25  S         33.3390  -68.4020   69.1330 S.O2  402  IDS402      0.2080
     26  O5        25.8600  -69.2910   71.1130 O.3   403  SGN403     -0.3439
     27  C2        30.9970  -68.9040   70.1700 C.3   402  IDS402      0.1682
     28  C6        24.9970  -68.7480   73.3170 C.3   403  SGN403      0.1051
     29  C6        28.2250  -66.2150   72.0850 C.2   402  IDS402      0.3367
     30  O5S       27.4490  -71.1760   72.9490 O.2   403  SGN403     -0.1181
     31  O61       27.8510  -65.4600   71.1390 O.3   402  IDS402     -0.4788
     32  C3        23.9810  -68.0810   69.8800 C.3   403  SGN403      0.0793
     33  O6        25.1880  -70.1690   73.3530 O.3   403  SGN403     -0.2132
     34  O3S       33.9030  -68.2630   67.7040 O.3   402  IDS402     -0.2311
     35  C5        25.4100  -68.2090   71.9420 C.3   403  SGN403      0.0897
     36 H          28.3763  -69.2376   71.2205 H     402  IDS402      0.0656
     37 H          25.3100  -64.7629   66.7496 H     403  SGN403      0.2439
     38 H          26.6087  -66.5959   68.8789 H     403  SGN403      0.1485
     39 H          29.4496  -67.8792   72.6349 H     402  IDS402      0.0741
     40 H          32.4113  -69.0071   72.3488 H     402  IDS402      0.2126
     41 H          24.0156  -68.0874   66.7485 H     403  SGN403      0.2439
     42 H          25.1111  -68.7788   68.2200 H     403  SGN403      0.0553
     43 H          29.6748  -67.7241   68.9852 H     402  IDS402      0.0649
     44 H          27.5027  -65.9637   66.6749 H     403  SGN403      0.2439
     45 H          26.8732  -69.5598   69.3561 H     403  SGN403      0.0927
     46 H          32.3435  -67.3402   70.7220 H     402  IDS402      0.0937
     47 H          23.2551  -69.7564   69.1016 H     403  SGN403      0.2098
     48 H          26.3977  -69.5500   75.6698 H     403  SGN403      0.2469
     49 H          29.1074  -70.5013   69.3996 H     402  IDS402      0.2100
     50 H          23.3546  -67.6471   71.8771 H     403  SGN403      0.0316
     51 H          24.4535  -66.4644   71.1889 H     403  SGN403      0.0316
     52 H          30.9543  -69.8163   70.7275 H     402  IDS402      0.0699
     53 H          23.9659  -68.5226   73.4930 H     403  SGN403      0.0610
     54 H          25.5979  -68.2890   74.0741 H     403  SGN403      0.0610
     55 H          28.1687  -65.6058   70.2696 H     402  IDS402      0.2951
     56 H          23.2996  -67.4327   69.3699 H     403  SGN403      0.0612
     57 H          33.3112  -67.7049   67.1757 H     402  IDS402      0.2469
     58 H          26.2060  -67.5053   72.0689 H     403  SGN403      0.0621
@<TRIPOS>BOND
     1     1    25    2
     2     2    13    1
     3     2     7    1
     4     2    17    1
     5     3    10    1
     6     4    27    1
     7     4    25    1
     8     5    12    1
     9     5    10    1
    10     6    33    1
    11     6    22    2
    12     6    30    2
    13     6    19    1
    14     7    29    1
    15     7    23    1
    16     8    29    2
    17     9    16    1
    18    10    14    1
    19    10    11    1
    20    12    15    1
    21    12    32    1
    22    13    27    1
    23    13    21    1
    24    15    17    1
    25    15    26    1
    26    16    27    1
    27    16    23    1
    28    18    32    1
    29    20    25    2
    30    24    32    1
    31    24    35    1
    32    25    34    1
    33    26    35    1
    34    28    35    1
    35    28    33    1
    36    29    31    1
    37     2    36    1
    38     3    37    1
    39     5    38    1
    40     7    39    1
    41     9    40    1
    42    11    41    1
    43    12    42    1
    44    13    43    1
    45    14    44    1
    46    15    45    1
    47    16    46    1
    48    18    47    1
    49    19    48    1
    50    21    49    1
    51    24    50    1
    52    24    51    1
    53    27    52    1
    54    28    53    1
    55    28    54    1
    56    31    55    1
    57    32    56    1
    58    34    57    1
    59    35    58    1
