@<TRIPOS>MOLECULE
4DY0_LIGAND_1_uncharged.pdb
 53 54 0 0 0
SMALL
GASTEIGER

@<TRIPOS>ATOM
      1  O1S       33.2420  -67.0130   69.7730 O.2   402  IDS402     -0.3452
      2  C4        28.6100  -68.3180   70.7260 C.3   402  IDS402      0.1267
      3  O1S       24.8640  -65.5620   66.4280 O.3   403  SGN403     -0.0534
      4  O2        31.9360  -69.0400   69.0790 O.3   402  IDS402     -0.2435
      5  N         25.6650  -66.8180   68.5620 N.3   403  SGN403     -0.1776
      6  S2        26.4220  -70.7940   74.0190 S.3   403  SGN403     -0.0008
      7  C5        29.2210  -67.3440   71.7370 C.3   402  IDS402      0.1863
      8  O62       27.8710  -66.1240   73.2950 O.2   402  IDS402     -0.2480
      9  O1        31.7200  -68.3300   72.4160 O.3   402  IDS402     -0.3648
     10  S1        25.6260  -66.8000   66.9080 S.3   403  SGN403      0.0767
     11  O3S       24.9200  -68.0600   66.3990 O.3   403  SGN403     -0.0534
     12  C2        25.2830  -68.1480   69.0670 C.3   403  SGN403      0.1056
     13  C3        29.6100  -68.5960   69.6020 C.3   402  IDS402      0.1174
     14  O2S       27.0530  -66.7610   66.3540 O.3   403  SGN403     -0.0534
     15  C1        26.4070  -68.7630   69.8970 C.3   403  SGN403      0.1793
     16  C1        31.4490  -67.7860   71.1040 C.3   402  IDS402      0.1885
     17  O1        27.4020  -67.7530   70.1770 O.3   403  SGN403     -0.3406
     18  O3        23.4110  -69.3970   69.9890 O.3   403  SGN403     -0.3899
     19  O6S       27.0480  -69.7920   74.9920 O.3   403  SGN403     -0.2682
     20  O2S       34.2820  -69.2900   69.9710 O.2   402  IDS402     -0.3452
     21  O3        29.1620  -69.7180   68.8300 O.3   402  IDS402     -0.3863
     22  O4S       26.0060  -72.0500   74.7850 O.2   403  SGN403     -0.3452
     23  O5        30.4230  -66.7770   71.1840 O.3   402  IDS402     -0.3316
     24  C4        24.2300  -67.5070   71.2780 C.3   403  SGN403      0.0036
     25  S         33.3390  -68.4020   69.1330 S.3   402  IDS402     -0.0004
     26  O5        25.8600  -69.2910   71.1130 O.3   403  SGN403     -0.3439
     27  C2        30.9970  -68.9040   70.1700 C.3   402  IDS402      0.1642
     28  C6        24.9970  -68.7480   73.3170 C.3   403  SGN403      0.1011
     29  C6        28.2250  -66.2150   72.0850 C.2   402  IDS402      0.3367
     30  O5S       27.4490  -71.1760   72.9490 O.2   403  SGN403     -0.3452
     31  O61       27.8510  -65.4600   71.1390 O.3   402  IDS402     -0.4788
     32  C3        23.9810  -68.0810   69.8800 C.3   403  SGN403      0.0793
     33  O6        25.1880  -70.1690   73.3530 O.3   403  SGN403     -0.2521
     34  O3S       33.9030  -68.2630   67.7040 O.3   402  IDS402     -0.2682
     35  C5        25.4100  -68.2090   71.9420 C.3   403  SGN403      0.0896
     36  H         28.3760  -69.2380   71.2210 H     402  IDS402      0.0656
     37  H         26.6090  -66.5960   68.8790 H     403  SGN403      0.1487
     38  H         29.4500  -67.8790   72.6350 H     402  IDS402      0.0741
     39  H         32.4110  -69.0070   72.3490 H     402  IDS402      0.2126
     40  H         25.1110  -68.7790   68.2200 H     403  SGN403      0.0553
     41  H         29.6750  -67.7240   68.9850 H     402  IDS402      0.0649
     42  H         26.8730  -69.5600   69.3560 H     403  SGN403      0.0927
     43  H         32.3430  -67.3400   70.7220 H     402  IDS402      0.0936
     44  H         23.2550  -69.7560   69.1020 H     403  SGN403      0.2098
     45  H         29.1070  -70.5010   69.4000 H     402  IDS402      0.2100
     46  H         23.3550  -67.6470   71.8770 H     403  SGN403      0.0316
     47  H         24.4530  -66.4640   71.1890 H     403  SGN403      0.0316
     48  H         30.9540  -69.8160   70.7280 H     402  IDS402      0.0698
     49  H         23.9660  -68.5230   73.4930 H     403  SGN403      0.0609
     50  H         25.5980  -68.2890   74.0740 H     403  SGN403      0.0609
     51  H         28.1690  -65.6060   70.2700 H     402  IDS402      0.2951
     52  H         23.3000  -67.4330   69.3700 H     403  SGN403      0.0612
     53  H         26.2060  -67.5050   72.0690 H     403  SGN403      0.0621
@<TRIPOS>BOND
     1     1    25    2
     2     2    13    1
     3     2     7    1
     4     2    17    1
     5     2    36    1
     6     3    10    1
     7     4    27    1
     8     4    25    1
     9     5    12    1
    10     5    10    1
    11     5    37    1
    12     6    33    1
    13     6    22    2
    14     6    30    2
    15     6    19    1
    16     7    29    1
    17     7    23    1
    18     7    38    1
    19     8    29    2
    20     9    16    1
    21     9    39    1
    22    10    14    1
    23    10    11    1
    24    12    15    1
    25    12    32    1
    26    12    40    1
    27    13    27    1
    28    13    21    1
    29    13    41    1
    30    15    17    1
    31    15    26    1
    32    15    42    1
    33    16    27    1
    34    16    23    1
    35    16    43    1
    36    18    32    1
    37    18    44    1
    38    20    25    2
    39    21    45    1
    40    24    32    1
    41    24    35    1
    42    24    46    1
    43    24    47    1
    44    25    34    1
    45    26    35    1
    46    27    48    1
    47    28    35    1
    48    28    33    1
    49    28    49    1
    50    28    50    1
    51    29    31    1
    52    31    51    1
    53    32    52    1
    54    35    53    1
