REMARK  28 active torsions:
REMARK  status: ('A' for Active; 'I' for Inactive)
REMARK    1 I    between atoms: O2_1  and  C2_16 
REMARK    2 I    between atoms: O2_1  and  S_38 
REMARK    3 I    between atoms: S1_4  and  N_25 
REMARK    4 I    between atoms: S1_4  and  O1S_14 
REMARK    5 I    between atoms: S1_4  and  O2S_30 
REMARK    6 I    between atoms: S1_4  and  O3S_27 
REMARK    7 I    between atoms: C4_6  and  O4_18 
REMARK    8 I    between atoms: C4_8  and  O4_44 
REMARK    9 I    between atoms: C2_9  and  N_51 
REMARK   10 I    between atoms: C2_10  and  N_25 
REMARK   11 I    between atoms: O3_11  and  C3_49 
REMARK   12 I    between atoms: O1_13  and  C1_36 
REMARK   13 I    between atoms: C5_15  and  C6_21 
REMARK   14 I    between atoms: O3_17  and  C3_50 
REMARK   15 I    between atoms: C6_21  and  O6_34 
REMARK   16 I    between atoms: O3_22  and  C3_43 
REMARK   17 I    between atoms: O1_23  and  C1_39 
REMARK   18 I    between atoms: O1_23  and  C4_24 
REMARK   19 I    between atoms: C5_26  and  C6_31 
REMARK   20 I    between atoms: O1S_28  and  S1_46 
REMARK   21 I    between atoms: O3S_29  and  S1_46 
REMARK   22 I    between atoms: C6_31  and  O6_55 
REMARK   23 I    between atoms: O6_34  and  S2_41 
REMARK   24 I    between atoms: O2S_35  and  S1_46 
REMARK   25 I    between atoms: C6_37  and  C5_42 
REMARK   26 I    between atoms: O4_44  and  C1_54 
REMARK   27 I    between atoms: S1_46  and  N_51 
REMARK   28 I    between atoms: S2_53  and  O6_55 
ROOT
ATOM      1  C2  IDS d 502      31.121  21.076 145.648  0.00  0.00     0.231 C 
ATOM      2  C4  IDS d 502      30.688  23.251 146.683  0.00  0.00     0.195 C 
ATOM      3  O5  IDS d 502      32.812  22.822 145.378  0.00  0.00    -0.340 OA
ATOM      4  C5  IDS d 502      32.210  23.443 146.531  0.00  0.00     0.257 C 
ATOM      5  C3  IDS d 502      30.099  22.175 145.793  0.00  0.00     0.185 C 
ATOM      6  C1  IDS d 502      32.281  21.606 144.837  0.00  0.00     0.294 C 
ENDROOT
BRANCH   2   7
ATOM      7  O1  SGN d 501      29.956  24.468 146.536  0.00  0.00    -0.348 OA
BRANCH   7   8
ATOM      8  C1  SGN d 501      29.346  24.902 147.750  0.00  0.00     0.282 C 
ATOM      9  O5  SGN d 501      30.175  25.848 148.433  0.00  0.00    -0.349 OA
ATOM     10  C5  SGN d 501      30.345  27.078 147.721  0.00  0.00     0.181 C 
ATOM     11  C4  SGN d 501      28.992  27.765 147.588  0.00  0.00     0.179 C 
ATOM     12  C3  SGN d 501      28.046  26.857 146.812  0.00  0.00     0.172 C 
ATOM     13  C2  SGN d 501      27.959  25.494 147.494  0.00  0.00     0.157 C 
BRANCH  10  14
ATOM     14  C6  SGN d 501      31.367  27.975 148.411  0.00  0.00     0.227 C 
BRANCH  14  15
ATOM     15  O6  SGN d 501      31.823  27.367 149.618  0.00  0.00    -0.254 OA
BRANCH  15  16
ATOM     16  S2  SGN d 501      31.909  28.325 151.105  0.00  0.00     0.251 S 
ATOM     17  O6S SGN d 501      33.040  29.279 151.017  0.00  0.00    -0.572 OA
ATOM     18  O5S SGN d 501      30.644  29.075 151.281  0.00  0.00    -0.572 OA
ATOM     19  O4S SGN d 501      32.114  27.424 152.263  0.00  0.00    -0.572 OA
ENDBRANCH  15  16
ENDBRANCH  14  15
ENDBRANCH  10  14
BRANCH  11  20
ATOM     20  O4  SGN d 501      29.146  29.007 146.899  0.00  0.00    -0.390 OA
ATOM     21  H   SGN d 501      29.512  28.843 146.016  0.00  0.00     0.210 HD
ENDBRANCH  11  20
BRANCH  12  22
ATOM     22  O3  SGN d 501      26.763  27.447 146.738  0.00  0.00    -0.391 OA
ATOM     23  H   SGN d 501      26.829  28.312 146.304  0.00  0.00     0.210 HD
ENDBRANCH  12  22
BRANCH  13  24
ATOM     24  N   SGN d 501      27.163  24.586 146.688  0.00  0.00    -0.210 NA
ATOM     25  H   SGN d 501      27.621  23.676 146.729  0.00  0.00     0.140 HD
BRANCH  24  26
ATOM     26  S1  SGN d 501      25.458  24.320 147.087  0.00  0.00     0.156 S 
BRANCH  26  27
ATOM     27  O1S SGN d 501      25.296  22.961 147.652  0.00  0.00    -0.296 OA
ATOM     28  H   SGN d 501      24.363  22.811 147.872  0.00  0.00     0.231 HD
ENDBRANCH  26  27
BRANCH  26  29
ATOM     29  O3S SGN d 501      25.011  25.320 148.083  0.00  0.00    -0.296 OA
ATOM     30  H   SGN d 501      24.077  25.168 148.297  0.00  0.00     0.231 HD
ENDBRANCH  26  29
BRANCH  26  31
ATOM     31  O2S SGN d 501      24.638  24.451 145.860  0.00  0.00    -0.296 OA
ATOM     32  H   SGN d 501      23.704  24.305 146.078  0.00  0.00     0.231 HD
ENDBRANCH  26  31
ENDBRANCH  24  26
ENDBRANCH  13  24
ENDBRANCH   7   8
ENDBRANCH   2   7
BRANCH   5  33
ATOM     33  O3  IDS d 502      28.927  21.658 146.388  0.00  0.00    -0.390 OA
ATOM     34  H   IDS d 502      28.551  20.970 145.817  0.00  0.00     0.210 HD
ENDBRANCH   5  33
BRANCH   4  35
ATOM     35  C6  IDS d 502      32.476  24.923 146.295  0.00  0.00     0.206 C 
ATOM     36  O61 IDS d 502      33.187  25.550 147.106  0.00  0.00    -0.646 OA
ATOM     37  O62 IDS d 502      32.052  25.435 145.232  0.00  0.00    -0.646 OA
ENDBRANCH   4  35
BRANCH   1  38
ATOM     38  O2  IDS d 502      30.547  19.970 144.959  0.00  0.00    -0.244 OA
BRANCH  38  39
ATOM     39  S   IDS d 502      30.963  18.340 145.500  0.00  0.00     0.252 S 
ATOM     40  O3S IDS d 502      31.415  17.536 144.344  0.00  0.00    -0.572 OA
ATOM     41  O1S IDS d 502      29.771  17.708 146.111  0.00  0.00    -0.572 OA
ATOM     42  O2S IDS d 502      32.056  18.415 146.498  0.00  0.00    -0.572 OA
ENDBRANCH  38  39
ENDBRANCH   1  38
BRANCH   6  43
ATOM     43  O4  SGN d 503      33.279  20.595 144.741  0.00  0.00    -0.348 OA
BRANCH  43  44
ATOM     44  C4  SGN d 503      34.044  20.645 143.539  0.00  0.00     0.186 C 
ATOM     45  C3  SGN d 503      35.513  20.623 143.908  0.00  0.00     0.173 C 
ATOM     46  C2  SGN d 503      36.347  20.530 142.644  0.00  0.00     0.157 C 
ATOM     47  C1  SGN d 503      35.938  19.313 141.829  0.00  0.00     0.278 C 
ATOM     48  O5  SGN d 503      34.547  19.404 141.532  0.00  0.00    -0.350 OA
ATOM     49  C5  SGN d 503      33.683  19.450 142.669  0.00  0.00     0.181 C 
BRANCH  45  50
ATOM     50  O3  SGN d 503      35.832  21.800 144.618  0.00  0.00    -0.391 OA
ATOM     51  H   SGN d 503      35.293  21.848 145.423  0.00  0.00     0.210 HD
ENDBRANCH  45  50
BRANCH  46  52
ATOM     52  N   SGN d 503      37.747  20.438 142.996  0.00  0.00    -0.210 NA
ATOM     53  H   SGN d 503      37.794  20.280 144.003  0.00  0.00     0.140 HD
BRANCH  52  54
ATOM     54  S1  SGN d 503      38.804  21.804 142.636  0.00  0.00     0.156 S 
BRANCH  54  55
ATOM     55  O1S SGN d 503      39.018  21.871 141.175  0.00  0.00    -0.296 OA
ATOM     56  H   SGN d 503      39.439  21.052 140.872  0.00  0.00     0.231 HD
ENDBRANCH  54  55
BRANCH  54  57
ATOM     57  O2S SGN d 503      40.102  21.621 143.327  0.00  0.00    -0.296 OA
ATOM     58  H   SGN d 503      40.519  20.801 143.020  0.00  0.00     0.231 HD
ENDBRANCH  54  57
BRANCH  54  59
ATOM     59  O3S SGN d 503      38.161  23.054 143.100  0.00  0.00    -0.296 OA
ATOM     60  H   SGN d 503      37.312  23.169 142.645  0.00  0.00     0.231 HD
ENDBRANCH  54  59
ENDBRANCH  52  54
ENDBRANCH  46  52
BRANCH  47  61
ATOM     61  O1  SGN d 503      36.215  18.120 142.556  0.00  0.00    -0.369 OA
ATOM     62  H   SGN d 503      35.951  17.351 142.028  0.00  0.00     0.212 HD
ENDBRANCH  47  61
BRANCH  49  63
ATOM     63  C6  SGN d 503      32.275  19.674 142.150  0.00  0.00     0.227 C 
BRANCH  63  64
ATOM     64  O6  SGN d 503      32.193  21.049 141.793  0.00  0.00    -0.254 OA
BRANCH  64  65
ATOM     65  S2  SGN d 503      30.784  21.652 140.933  0.00  0.00     0.251 S 
ATOM     66  O4S SGN d 503      29.763  22.075 141.914  0.00  0.00    -0.572 OA
ATOM     67  O5S SGN d 503      30.233  20.573 140.096  0.00  0.00    -0.572 OA
ATOM     68  O6S SGN d 503      31.194  22.794 140.091  0.00  0.00    -0.572 OA
ENDBRANCH  64  65
ENDBRANCH  63  64
ENDBRANCH  49  63
ENDBRANCH  43  44
ENDBRANCH   6  43
TORSDOF 28
