REMARK  23 active torsions:
REMARK  status: ('A' for Active; 'I' for Inactive)
REMARK    1 I    between atoms: O3_1  and  C3_39 
REMARK    2 I    between atoms: S_2  and  O4_5 
REMARK    3 I    between atoms: C6_3  and  C5_7 
REMARK    4 I    between atoms: C6_3  and  O6_32 
REMARK      I    between atoms: C7_4  and  N_40 
REMARK    5 I    between atoms: O4_5  and  C4_43 
REMARK    6 I    between atoms: C1_6  and  O3_31 
REMARK    7 I    between atoms: C2_9  and  O2_16 
REMARK    8 I    between atoms: C2_11  and  N_40 
REMARK    9 I    between atoms: C5_13  and  C6_58 
REMARK   10 I    between atoms: C3_18  and  O3_29 
REMARK   11 I    between atoms: C3_21  and  O3_51 
REMARK   12 I    between atoms: C1_22  and  O1_34 
REMARK   13 I    between atoms: C1_24  and  O3_51 
REMARK   14 I    between atoms: S_27  and  O4_38 
REMARK   15 I    between atoms: C2_30  and  N_55 
REMARK   16 I    between atoms: O3_31  and  C3_44 
REMARK   17 I    between atoms: C5_33  and  C6_53 
REMARK      I    between atoms: C7_35  and  N_55 
REMARK   18 I    between atoms: C5_36  and  C6_46 
REMARK   19 A    between atoms: O1_37  and  C1_49 
REMARK   19  A    between atoms: O1_37  and  C1_49 
REMARK   20 A    between atoms: O1_37  and  C4_41 
REMARK   20  A    between atoms: O1_37  and  C4_41 
REMARK   21 I    between atoms: O4_38  and  C4_52 
REMARK   22 I    between atoms: C6_46  and  O6_56 
REMARK   23 I    between atoms: C2_50  and  O2_59 
ROOT
ATOM      1  C1  GCT d 811       3.221  44.631  76.841  0.00  0.00     0.292 C 
ATOM      2  C5  GCT d 811       0.919  44.044  75.983  0.00  0.00     0.257 C 
ATOM      3  C3  GCT d 811       2.230  42.692  77.693  0.00  0.00     0.183 C 
ATOM      4  C4  GCT d 811       0.850  43.049  77.139  0.00  0.00     0.195 C 
ATOM      5  C2  GCT d 811       2.857  44.001  78.167  0.00  0.00     0.204 C 
ATOM      6  O5  GCT d 811       2.266  44.480  75.800  0.00  0.00    -0.340 OA
ENDROOT
BRANCH   4   7
ATOM      7  O1  ASG d 810       0.480  41.586  75.870  0.00  0.00    -0.348 OA
BRANCH   7   8
ATOM      8  C1  ASG d 810      -0.347  40.701  76.591  0.00  0.00     0.286 C 
ATOM      9  C2  ASG d 810      -0.913  39.679  75.607  0.00  0.00     0.171 C 
ATOM     10  C3  ASG d 810      -1.772  38.687  76.373  0.00  0.00     0.185 C 
ATOM     11  C4  ASG d 810      -0.915  38.049  77.425  0.00  0.00     0.207 C 
ATOM     12  C5  ASG d 810      -0.251  39.085  78.344  0.00  0.00     0.181 C 
ATOM     13  O5  ASG d 810       0.486  40.004  77.496  0.00  0.00    -0.349 OA
BRANCH   9  14
ATOM     14  N   ASG d 810      -1.755  40.225  74.562  0.00  0.00    -0.349 N 
ATOM     15  C7  ASG d 810      -1.587  40.017  73.225  0.00  0.00     0.214 C 
ATOM     16  C8  ASG d 810      -2.691  40.392  72.344  0.00  0.00     0.117 C 
ATOM     17  O7  ASG d 810      -0.581  39.398  72.827  0.00  0.00    -0.274 OA
ATOM     18  H   ASG d 810      -2.510  40.792  74.840  0.00  0.00     0.163 HD
ENDBRANCH   9  14
BRANCH  10  19
ATOM     19  O3  ASG d 810      -2.243  37.663  75.456  0.00  0.00    -0.348 OA
BRANCH  19  20
ATOM     20  C1  GAD d 809      -3.653  37.731  75.155  0.00  0.00     0.298 C 
ATOM     21  C2  GAD d 809      -3.988  36.674  74.115  0.00  0.00     0.206 C 
ATOM     22  C3  GAD d 809      -5.481  36.636  73.850  0.00  0.00     0.177 C 
ATOM     23  C4  GAD d 809      -6.224  36.923  75.163  0.00  0.00     0.051 C 
ATOM     24  C5  GAD d 809      -5.662  37.275  76.311  0.00  0.00     0.147 C 
ATOM     25  O5  GAD d 809      -4.272  37.413  76.375  0.00  0.00    -0.311 OA
BRANCH  21  26
ATOM     26  O2  GAD d 809      -3.321  36.986  72.869  0.00  0.00    -0.388 OA
ATOM     27  H   GAD d 809      -3.628  37.847  72.545  0.00  0.00     0.210 HD
ENDBRANCH  21  26
BRANCH  22  28
ATOM     28  O3  GAD d 809      -5.853  35.346  73.336  0.00  0.00    -0.389 OA
ATOM     29  H   GAD d 809      -5.623  34.661  73.983  0.00  0.00     0.210 HD
ENDBRANCH  22  28
BRANCH  24  30
ATOM     30  C6  GAD d 809      -6.368  37.548  77.562  0.00  0.00     0.233 C 
ATOM     31  O6A GAD d 809      -7.578  37.889  77.483  0.00  0.00    -0.642 OA
ATOM     32  O6B GAD d 809      -5.686  37.452  78.622  0.00  0.00    -0.642 OA
ENDBRANCH  24  30
ENDBRANCH  19  20
ENDBRANCH  10  19
BRANCH  11  33
ATOM     33  O4  ASG d 810       0.090  37.221  76.742  0.00  0.00    -0.246 OA
BRANCH  33  34
ATOM     34  S   ASG d 810       0.035  35.617  76.987  0.00  0.00     0.252 S 
ATOM     35  OSA ASG d 810       0.484  35.426  78.344  0.00  0.00    -0.572 OA
ATOM     36  OSB ASG d 810      -1.406  35.156  76.951  0.00  0.00    -0.572 OA
ATOM     37  OSC ASG d 810       0.918  35.048  75.884  0.00  0.00    -0.572 OA
ENDBRANCH  33  34
ENDBRANCH  11  33
BRANCH  12  38
ATOM     38  C6  ASG d 810       0.718  38.403  79.256  0.00  0.00     0.199 C 
BRANCH  38  39
ATOM     39  O6  ASG d 810       1.306  39.389  79.957  0.00  0.00    -0.398 OA
ATOM     40  H   ASG d 810       1.735  40.008  79.346  0.00  0.00     0.209 HD
ENDBRANCH  38  39
ENDBRANCH  12  38
ENDBRANCH   7   8
ENDBRANCH   4   7
BRANCH   2  41
ATOM     41  C6  GCT d 811      -0.200  45.100  75.922  0.00  0.00     0.206 C 
ATOM     42  O6A GCT d 811       0.030  46.268  75.532  0.00  0.00    -0.646 OA
ATOM     43  O6B GCT d 811      -1.342  44.703  76.212  0.00  0.00    -0.646 OA
ENDBRANCH   2  41
BRANCH   3  44
ATOM     44  O3  GCT d 811       2.211  41.820  78.714  0.00  0.00    -0.390 OA
ATOM     45  H   GCT d 811       3.119  41.646  79.007  0.00  0.00     0.210 HD
ENDBRANCH   3  44
BRANCH   5  46
ATOM     46  O2  GCT d 811       4.068  43.573  78.724  0.00  0.00    -0.388 OA
ATOM     47  H   GCT d 811       4.540  43.019  78.084  0.00  0.00     0.210 HD
ENDBRANCH   5  46
BRANCH   1  48
ATOM     48  O3  ASG d 812       3.542  45.966  77.191  0.00  0.00    -0.348 OA
BRANCH  48  49
ATOM     49  C3  ASG d 812       4.423  46.511  76.240  0.00  0.00     0.185 C 
ATOM     50  C2  ASG d 812       5.541  47.111  77.099  0.00  0.00     0.171 C 
ATOM     51  C1  ASG d 812       6.549  47.969  76.312  0.00  0.00     0.282 C 
ATOM     52  O5  ASG d 812       5.797  48.871  75.497  0.00  0.00    -0.349 OA
ATOM     53  C5  ASG d 812       4.875  48.215  74.576  0.00  0.00     0.181 C 
ATOM     54  C4  ASG d 812       3.750  47.558  75.395  0.00  0.00     0.207 C 
BRANCH  50  55
ATOM     55  N   ASG d 812       6.157  46.078  77.924  0.00  0.00    -0.349 N 
ATOM     56  C7  ASG d 812       6.413  46.213  79.221  0.00  0.00     0.214 C 
ATOM     57  C8  ASG d 812       6.788  44.915  79.869  0.00  0.00     0.117 C 
ATOM     58  O7  ASG d 812       6.359  47.315  79.793  0.00  0.00    -0.274 OA
ATOM     59  H   ASG d 812       6.399  45.227  77.493  0.00  0.00     0.163 HD
ENDBRANCH  50  55
BRANCH  51  60
ATOM     60  O1  ASG d 812       7.337  48.681  77.264  0.00  0.00    -0.369 OA
ATOM     61  H   ASG d 812       6.757  49.214  77.830  0.00  0.00     0.212 HD
ENDBRANCH  51  60
BRANCH  53  62
ATOM     62  C6  ASG d 812       4.390  49.105  73.447  0.00  0.00     0.199 C 
BRANCH  62  63
ATOM     63  O6  ASG d 812       5.422  49.797  72.769  0.00  0.00    -0.398 OA
ATOM     64  H   ASG d 812       5.872  50.394  73.388  0.00  0.00     0.209 HD
ENDBRANCH  62  63
ENDBRANCH  53  62
BRANCH  54  65
ATOM     65  O4  ASG d 812       3.067  48.471  76.262  0.00  0.00    -0.246 OA
BRANCH  65  66
ATOM     66  S   ASG d 812       1.887  49.440  75.732  0.00  0.00     0.252 S 
ATOM     67  OSA ASG d 812       1.356  48.976  74.479  0.00  0.00    -0.572 OA
ATOM     68  OSC ASG d 812       2.378  50.939  75.459  0.00  0.00    -0.572 OA
ATOM     69  OSB ASG d 812       0.878  49.459  76.710  0.00  0.00    -0.572 OA
ENDBRANCH  65  66
ENDBRANCH  54  65
ENDBRANCH  48  49
ENDBRANCH   1  48
TORSDOF 23
