MODEL 1
REMARK VINA RESULT:      -5.3      0.000      0.000
REMARK WARNING: 32 MAX_TORS EXCEEDED!!!
REMARK  40 active torsions:
REMARK  status: ('A' for Active; 'I' for Inactive)
REMARK    1 I    between atoms: C6_1  and  C5_8 
REMARK    2 I    between atoms: C6_1  and  O6_57 
REMARK    3 I    between atoms: O4_2  and  C4_49 
REMARK    4 I    between atoms: O6_3  and  C6_7 
REMARK    5 I    between atoms: O6_3  and  S2_58 
REMARK    6 I    between atoms: S_4  and  O2_6 
REMARK    7 I    between atoms: O3_5  and  C3_81 
REMARK    8 I    between atoms: O2_6  and  C2_11 
REMARK    9 I    between atoms: C6_7  and  C5_54 
REMARK   10 I    between atoms: O4_9  and  C4_32 
REMARK   11 I    between atoms: O4_9  and  C1_39 
REMARK   12 I    between atoms: O3_12  and  C3_18 
REMARK   13 I    between atoms: N_13  and  C2_52 
REMARK   14 I    between atoms: N_13  and  S1_45 
REMARK   15 I    between atoms: O3_17  and  C3_83 
REMARK   16 I    between atoms: C4_20  and  O4_44 
REMARK   17 I    between atoms: N_21  and  C2_66 
REMARK   18 I    between atoms: N_21  and  S1_53 
REMARK   19 I    between atoms: O3_22  and  C3_65 
REMARK   20 I    between atoms: C4_23  and  O4_74 
REMARK   21 I    between atoms: C1_25  and  O1_72 
REMARK   22 I    between atoms: C2_28  and  O2_69 
REMARK   23 I    between atoms: C4_33  and  O4_61 
REMARK   24 I    between atoms: O2S_34  and  S1_45 
REMARK   25 I    between atoms: C6_37  and  C5_47 
REMARK   26 I    between atoms: O2_38  and  C2_77 
REMARK   27 I    between atoms: O2_38  and  S_50 
REMARK   28 I    between atoms: O3S_40  and  S1_53 
REMARK   29 I    between atoms: O1S_42  and  S1_45 
REMARK   30 I    between atoms: O1S_43  and  S1_53 
REMARK   31 I    between atoms: O4_44  and  C1_46 
REMARK   32 I    between atoms: S1_45  and  O3S_60 
REMARK   33 I    between atoms: C6_48  and  C5_84 
REMARK   34 I    between atoms: C6_51  and  C5_87 
REMARK   35 I    between atoms: S1_53  and  O2S_55 
REMARK   36 I    between atoms: C1_56  and  O4_74 
REMARK   37 I    between atoms: O6_57  and  S2_82 
REMARK   38 I    between atoms: O4_61  and  C1_70 
REMARK   39 I    between atoms: C3_63  and  O3_79 
REMARK   40 I    between atoms: O2_69  and  S_76 
ROOT
ATOM      1  C3  IDS d 504     -16.880  49.991 175.327  0.00  0.00     0.185 C 
ATOM      2  C4  IDS d 504     -16.223  49.570 174.022  0.00  0.00     0.195 C 
ATOM      3  C1  IDS d 504     -16.518  52.425 174.579  0.00  0.00     0.294 C 
ATOM      4  O5  IDS d 504     -15.897  51.876 173.413  0.00  0.00    -0.340 OA
ATOM      5  C2  IDS d 504     -16.468  51.456 175.743  0.00  0.00     0.231 C 
ATOM      6  C5  IDS d 504     -16.456  50.658 172.975  0.00  0.00     0.257 C 
ENDROOT
BRANCH   2   7
ATOM      7  O4  IDS d 504     -14.831  49.387 174.235  0.00  0.00    -0.348 OA
BRANCH   7   8
ATOM      8  C1  SGN d 505     -14.485  48.090 174.639  0.00  0.00     0.282 C 
ATOM      9  O5  SGN d 505     -14.466  47.225 173.539  0.00  0.00    -0.349 OA
ATOM     10  C5  SGN d 505     -13.491  47.540 172.593  0.00  0.00     0.181 C 
ATOM     11  C4  SGN d 505     -12.126  47.375 173.179  0.00  0.00     0.186 C 
ATOM     12  C3  SGN d 505     -12.008  48.414 174.332  0.00  0.00     0.173 C 
ATOM     13  C2  SGN d 505     -13.133  48.063 175.325  0.00  0.00     0.157 C 
BRANCH  10  14
ATOM     14  C6  SGN d 505     -13.733  46.639 171.426  0.00  0.00     0.227 C 
BRANCH  14  15
ATOM     15  O6  SGN d 505     -13.997  47.487 170.361  0.00  0.00    -0.254 OA
BRANCH  15  16
ATOM     16  S2  SGN d 505     -14.609  47.116 169.018  0.00  0.00     0.251 S 
ATOM     17  O5S SGN d 505     -13.730  46.103 168.488  0.00  0.00    -0.572 OA
ATOM     18  O4S SGN d 505     -14.622  48.351 168.267  0.00  0.00    -0.572 OA
ATOM     19  O6S SGN d 505     -15.947  46.608 169.288  0.00  0.00    -0.572 OA
ENDBRANCH  15  16
ENDBRANCH  14  15
ENDBRANCH  10  14
BRANCH  11  20
ATOM     20  O4  SGN d 505     -11.223  47.550 172.107  0.00  0.00    -0.348 OA
BRANCH  20  21
ATOM     21  C1  IDS d 506     -10.056  46.816 171.960  0.00  0.00     0.294 C 
ATOM     22  C2  IDS d 506      -9.350  47.259 170.670  0.00  0.00     0.231 C 
ATOM     23  C3  IDS d 506      -8.222  46.288 170.222  0.00  0.00     0.185 C 
ATOM     24  C4  IDS d 506      -8.553  44.799 170.462  0.00  0.00     0.189 C 
ATOM     25  C5  IDS d 506      -9.303  44.617 171.785  0.00  0.00     0.256 C 
ATOM     26  O5  IDS d 506     -10.406  45.461 171.829  0.00  0.00    -0.340 OA
BRANCH  22  27
ATOM     27  O2  IDS d 506     -10.278  47.328 169.606  0.00  0.00    -0.244 OA
BRANCH  27  28
ATOM     28  S   IDS d 506     -10.564  48.546 168.627  0.00  0.00     0.252 S 
ATOM     29  O1S IDS d 506      -9.315  49.234 168.515  0.00  0.00    -0.572 OA
ATOM     30  O2S IDS d 506     -10.975  48.012 167.359  0.00  0.00    -0.572 OA
ATOM     31  O3S IDS d 506     -11.591  49.332 169.275  0.00  0.00    -0.572 OA
ENDBRANCH  27  28
ENDBRANCH  22  27
BRANCH  23  32
ATOM     32  O3  IDS d 506      -7.035  46.610 170.941  0.00  0.00    -0.390 OA
ATOM     33  H   IDS d 506      -7.219  47.332 171.563  0.00  0.00     0.210 HD
ENDBRANCH  23  32
BRANCH  24  34
ATOM     34  O4  IDS d 506      -9.364  44.374 169.392  0.00  0.00    -0.390 OA
ATOM     35  H   IDS d 506      -8.894  44.510 168.555  0.00  0.00     0.210 HD
ENDBRANCH  24  34
BRANCH  25  36
ATOM     36  C6  IDS d 506      -9.737  43.204 172.131  0.00  0.00     0.206 C 
ATOM     37  O62 IDS d 506     -10.408  42.530 171.369  0.00  0.00    -0.646 OA
ATOM     38  O61 IDS d 506      -9.399  42.703 173.194  0.00  0.00    -0.646 OA
ENDBRANCH  25  36
ENDBRANCH  20  21
ENDBRANCH  11  20
BRANCH  12  39
ATOM     39  O3  SGN d 505     -10.760  48.281 174.998  0.00  0.00    -0.391 OA
ATOM     40  H   SGN d 505     -10.536  49.118 175.436  0.00  0.00     0.210 HD
ENDBRANCH  12  39
BRANCH  13  41
ATOM     41  N   SGN d 505     -13.186  48.902 176.545  0.00  0.00    -0.210 NA
ATOM     42  H   SGN d 505     -13.809  49.686 176.350  0.00  0.00     0.140 HD
BRANCH  41  43
ATOM     43  S1  SGN d 505     -13.720  48.178 177.960  0.00  0.00     0.156 S 
BRANCH  43  44
ATOM     44  O3S SGN d 505     -13.222  46.848 177.957  0.00  0.00    -0.296 OA
ATOM     45  H   SGN d 505     -13.575  46.370 178.723  0.00  0.00     0.231 HD
ENDBRANCH  43  44
BRANCH  43  46
ATOM     46  O1S SGN d 505     -13.224  48.966 179.068  0.00  0.00    -0.296 OA
ATOM     47  H   SGN d 505     -13.747  48.773 179.861  0.00  0.00     0.231 HD
ENDBRANCH  43  46
BRANCH  43  48
ATOM     48  O2S SGN d 505     -15.161  48.200 177.868  0.00  0.00    -0.296 OA
ATOM     49  H   SGN d 505     -15.513  47.325 178.094  0.00  0.00     0.231 HD
ENDBRANCH  43  48
ENDBRANCH  41  43
ENDBRANCH  13  41
ENDBRANCH   7   8
ENDBRANCH   2   7
BRANCH   1  50
ATOM     50  O3  IDS d 504     -18.287  49.932 175.124  0.00  0.00    -0.390 OA
ATOM     51  H   IDS d 504     -18.677  50.800 175.311  0.00  0.00     0.210 HD
ENDBRANCH   1  50
BRANCH   6  52
ATOM     52  C6  IDS d 504     -15.963  50.318 171.559  0.00  0.00     0.206 C 
ATOM     53  O62 IDS d 504     -16.511  49.442 170.887  0.00  0.00    -0.646 OA
ATOM     54  O61 IDS d 504     -15.002  50.898 171.071  0.00  0.00    -0.646 OA
ENDBRANCH   6  52
BRANCH   5  55
ATOM     55  O2  IDS d 504     -15.146  51.468 176.279  0.00  0.00    -0.244 OA
BRANCH  55  56
ATOM     56  S   IDS d 504     -14.720  51.981 177.667  0.00  0.00     0.252 S 
ATOM     57  O2S IDS d 504     -13.300  51.820 177.772  0.00  0.00    -0.572 OA
ATOM     58  O3S IDS d 504     -15.170  53.322 177.679  0.00  0.00    -0.572 OA
ATOM     59  O1S IDS d 504     -15.408  51.184 178.616  0.00  0.00    -0.572 OA
ENDBRANCH  55  56
ENDBRANCH   5  55
BRANCH   3  60
ATOM     60  O4  SGN d 503     -17.853  52.778 174.359  0.00  0.00    -0.348 OA
BRANCH  60  61
ATOM     61  C4  SGN d 503     -18.018  54.007 173.731  0.00  0.00     0.186 C 
ATOM     62  C5  SGN d 503     -18.910  54.897 174.614  0.00  0.00     0.181 C 
ATOM     63  O5  SGN d 503     -19.194  56.106 173.981  0.00  0.00    -0.349 OA
ATOM     64  C1  SGN d 503     -19.900  55.951 172.774  0.00  0.00     0.282 C 
ATOM     65  C2  SGN d 503     -19.061  55.122 171.791  0.00  0.00     0.157 C 
ATOM     66  C3  SGN d 503     -18.683  53.774 172.377  0.00  0.00     0.173 C 
BRANCH  62  67
ATOM     67  C6  SGN d 503     -18.290  55.294 175.926  0.00  0.00     0.227 C 
BRANCH  67  68
ATOM     68  O6  SGN d 503     -17.591  56.502 175.718  0.00  0.00    -0.254 OA
BRANCH  68  69
ATOM     69  S2  SGN d 503     -16.050  56.675 175.774  0.00  0.00     0.251 S 
ATOM     70  O6S SGN d 503     -15.733  56.421 177.126  0.00  0.00    -0.572 OA
ATOM     71  O4S SGN d 503     -15.458  55.686 174.939  0.00  0.00    -0.572 OA
ATOM     72  O5S SGN d 503     -15.754  58.028 175.313  0.00  0.00    -0.572 OA
ENDBRANCH  68  69
ENDBRANCH  67  68
ENDBRANCH  62  67
BRANCH  64  73
ATOM     73  O4  IDS d 502     -21.153  55.360 172.985  0.00  0.00    -0.348 OA
BRANCH  73  74
ATOM     74  C4  IDS d 502     -22.167  56.251 173.373  0.00  0.00     0.195 C 
ATOM     75  C3  IDS d 502     -22.838  56.846 172.120  0.00  0.00     0.185 C 
ATOM     76  C2  IDS d 502     -23.664  55.785 171.385  0.00  0.00     0.231 C 
ATOM     77  C1  IDS d 502     -24.571  55.011 172.336  0.00  0.00     0.291 C 
ATOM     78  O5  IDS d 502     -23.853  54.519 173.440  0.00  0.00    -0.340 OA
ATOM     79  C5  IDS d 502     -23.203  55.509 174.213  0.00  0.00     0.257 C 
BRANCH  75  80
ATOM     80  O3  IDS d 502     -23.712  57.885 172.516  0.00  0.00    -0.390 OA
ATOM     81  H   IDS d 502     -24.360  57.538 173.149  0.00  0.00     0.210 HD
ENDBRANCH  75  80
BRANCH  76  82
ATOM     82  O2  IDS d 502     -22.761  54.879 170.811  0.00  0.00    -0.244 OA
BRANCH  82  83
ATOM     83  S   IDS d 502     -22.864  54.180 169.415  0.00  0.00     0.252 S 
ATOM     84  O3S IDS d 502     -22.792  55.255 168.459  0.00  0.00    -0.572 OA
ATOM     85  O2S IDS d 502     -24.129  53.484 169.415  0.00  0.00    -0.572 OA
ATOM     86  O1S IDS d 502     -21.747  53.283 169.305  0.00  0.00    -0.572 OA
ENDBRANCH  82  83
ENDBRANCH  76  82
BRANCH  77  87
ATOM     87  O1  IDS d 502     -25.625  55.857 172.712  0.00  0.00    -0.368 OA
ATOM     88  H   IDS d 502     -25.777  56.513 172.014  0.00  0.00     0.212 HD
ENDBRANCH  77  87
BRANCH  79  89
ATOM     89  C6  IDS d 502     -22.651  54.910 175.499  0.00  0.00     0.206 C 
ATOM     90  O61 IDS d 502     -21.977  55.565 176.256  0.00  0.00    -0.646 OA
ATOM     91  O62 IDS d 502     -22.879  53.755 175.801  0.00  0.00    -0.646 OA
ENDBRANCH  79  89
ENDBRANCH  73  74
ENDBRANCH  64  73
BRANCH  65  92
ATOM     92  N   SGN d 503     -19.759  54.973 170.527  0.00  0.00    -0.210 NA
ATOM     93  H   SGN d 503     -20.757  54.929 170.732  0.00  0.00     0.140 HD
BRANCH  92  94
ATOM     94  S1  SGN d 503     -19.544  56.134 169.406  0.00  0.00     0.156 S 
BRANCH  94  95
ATOM     95  O2S SGN d 503     -18.229  56.737 169.620  0.00  0.00    -0.296 OA
ATOM     96  H   SGN d 503     -18.137  57.519 169.054  0.00  0.00     0.231 HD
ENDBRANCH  94  95
BRANCH  94  97
ATOM     97  O1S SGN d 503     -20.619  57.089 169.601  0.00  0.00    -0.296 OA
ATOM     98  H   SGN d 503     -20.270  57.885 170.032  0.00  0.00     0.231 HD
ENDBRANCH  94  97
BRANCH  94  99
ATOM     99  O3S SGN d 503     -19.662  55.416 168.158  0.00  0.00    -0.296 OA
ATOM    100  H   SGN d 503     -19.182  55.893 167.464  0.00  0.00     0.231 HD
ENDBRANCH  94  99
ENDBRANCH  92  94
ENDBRANCH  65  92
BRANCH  66 101
ATOM    101  O3  SGN d 503     -17.749  53.127 171.533  0.00  0.00    -0.391 OA
ATOM    102  H   SGN d 503     -17.855  52.166 171.610  0.00  0.00     0.210 HD
ENDBRANCH  66 101
ENDBRANCH  60  61
ENDBRANCH   3  60
TORSDOF 40
ENDMDL
MODEL 2
REMARK VINA RESULT:      -5.3      0.576      1.291
REMARK WARNING: 32 MAX_TORS EXCEEDED!!!
REMARK  40 active torsions:
REMARK  status: ('A' for Active; 'I' for Inactive)
REMARK    1 I    between atoms: C6_1  and  C5_8 
REMARK    2 I    between atoms: C6_1  and  O6_57 
REMARK    3 I    between atoms: O4_2  and  C4_49 
REMARK    4 I    between atoms: O6_3  and  C6_7 
REMARK    5 I    between atoms: O6_3  and  S2_58 
REMARK    6 I    between atoms: S_4  and  O2_6 
REMARK    7 I    between atoms: O3_5  and  C3_81 
REMARK    8 I    between atoms: O2_6  and  C2_11 
REMARK    9 I    between atoms: C6_7  and  C5_54 
REMARK   10 I    between atoms: O4_9  and  C4_32 
REMARK   11 I    between atoms: O4_9  and  C1_39 
REMARK   12 I    between atoms: O3_12  and  C3_18 
REMARK   13 I    between atoms: N_13  and  C2_52 
REMARK   14 I    between atoms: N_13  and  S1_45 
REMARK   15 I    between atoms: O3_17  and  C3_83 
REMARK   16 I    between atoms: C4_20  and  O4_44 
REMARK   17 I    between atoms: N_21  and  C2_66 
REMARK   18 I    between atoms: N_21  and  S1_53 
REMARK   19 I    between atoms: O3_22  and  C3_65 
REMARK   20 I    between atoms: C4_23  and  O4_74 
REMARK   21 I    between atoms: C1_25  and  O1_72 
REMARK   22 I    between atoms: C2_28  and  O2_69 
REMARK   23 I    between atoms: C4_33  and  O4_61 
REMARK   24 I    between atoms: O2S_34  and  S1_45 
REMARK   25 I    between atoms: C6_37  and  C5_47 
REMARK   26 I    between atoms: O2_38  and  C2_77 
REMARK   27 I    between atoms: O2_38  and  S_50 
REMARK   28 I    between atoms: O3S_40  and  S1_53 
REMARK   29 I    between atoms: O1S_42  and  S1_45 
REMARK   30 I    between atoms: O1S_43  and  S1_53 
REMARK   31 I    between atoms: O4_44  and  C1_46 
REMARK   32 I    between atoms: S1_45  and  O3S_60 
REMARK   33 I    between atoms: C6_48  and  C5_84 
REMARK   34 I    between atoms: C6_51  and  C5_87 
REMARK   35 I    between atoms: S1_53  and  O2S_55 
REMARK   36 I    between atoms: C1_56  and  O4_74 
REMARK   37 I    between atoms: O6_57  and  S2_82 
REMARK   38 I    between atoms: O4_61  and  C1_70 
REMARK   39 I    between atoms: C3_63  and  O3_79 
REMARK   40 I    between atoms: O2_69  and  S_76 
ROOT
ATOM      1  C3  IDS d 504     -16.855  49.796 175.355  0.00  0.00     0.185 C 
ATOM      2  C4  IDS d 504     -16.190  49.381 174.051  0.00  0.00     0.195 C 
ATOM      3  C1  IDS d 504     -16.597  52.230 174.567  0.00  0.00     0.294 C 
ATOM      4  O5  IDS d 504     -15.962  51.688 173.404  0.00  0.00    -0.340 OA
ATOM      5  C2  IDS d 504     -16.498  51.282 175.745  0.00  0.00     0.231 C 
ATOM      6  C5  IDS d 504     -16.475  50.442 172.990  0.00  0.00     0.257 C 
ENDROOT
BRANCH   2   7
ATOM      7  O4  IDS d 504     -14.790  49.258 174.256  0.00  0.00    -0.348 OA
BRANCH   7   8
ATOM      8  C1  SGN d 505     -14.386  47.976 174.656  0.00  0.00     0.282 C 
ATOM      9  O5  SGN d 505     -14.328  47.117 173.553  0.00  0.00    -0.349 OA
ATOM     10  C5  SGN d 505     -13.367  47.478 172.609  0.00  0.00     0.181 C 
ATOM     11  C4  SGN d 505     -11.997  47.374 173.195  0.00  0.00     0.186 C 
ATOM     12  C3  SGN d 505     -11.927  48.413 174.352  0.00  0.00     0.173 C 
ATOM     13  C2  SGN d 505     -13.035  48.007 175.343  0.00  0.00     0.157 C 
BRANCH  10  14
ATOM     14  C6  SGN d 505     -13.568  46.572 171.439  0.00  0.00     0.227 C 
BRANCH  14  15
ATOM     15  O6  SGN d 505     -13.972  47.400 170.403  0.00  0.00    -0.254 OA
BRANCH  15  16
ATOM     16  S2  SGN d 505     -14.620  46.984 169.090  0.00  0.00     0.251 S 
ATOM     17  O5S SGN d 505     -15.923  46.495 169.468  0.00  0.00    -0.572 OA
ATOM     18  O4S SGN d 505     -13.737  45.978 168.547  0.00  0.00    -0.572 OA
ATOM     19  O6S SGN d 505     -14.693  48.177 168.257  0.00  0.00    -0.572 OA
ENDBRANCH  15  16
ENDBRANCH  14  15
ENDBRANCH  10  14
BRANCH  11  20
ATOM     20  O4  SGN d 505     -11.102  47.593 172.125  0.00  0.00    -0.348 OA
BRANCH  20  21
ATOM     21  C1  IDS d 506      -9.935  46.868 171.940  0.00  0.00     0.294 C 
ATOM     22  C2  IDS d 506      -9.273  47.317 170.629  0.00  0.00     0.231 C 
ATOM     23  C3  IDS d 506      -8.152  46.355 170.145  0.00  0.00     0.185 C 
ATOM     24  C4  IDS d 506      -8.462  44.864 170.396  0.00  0.00     0.189 C 
ATOM     25  C5  IDS d 506      -9.168  44.676 171.743  0.00  0.00     0.256 C 
ATOM     26  O5  IDS d 506     -10.276  45.511 171.822  0.00  0.00    -0.340 OA
BRANCH  22  27
ATOM     27  O2  IDS d 506     -10.236  47.377 169.595  0.00  0.00    -0.244 OA
BRANCH  27  28
ATOM     28  S   IDS d 506     -10.503  48.559 168.567  0.00  0.00     0.252 S 
ATOM     29  O1S IDS d 506      -9.293  49.322 168.555  0.00  0.00    -0.572 OA
ATOM     30  O2S IDS d 506     -10.761  47.980 167.279  0.00  0.00    -0.572 OA
ATOM     31  O3S IDS d 506     -11.632  49.289 169.102  0.00  0.00    -0.572 OA
ENDBRANCH  27  28
ENDBRANCH  22  27
BRANCH  23  32
ATOM     32  O3  IDS d 506      -6.946  46.689 170.827  0.00  0.00    -0.390 OA
ATOM     33  H   IDS d 506      -7.139  46.859 171.762  0.00  0.00     0.210 HD
ENDBRANCH  23  32
BRANCH  24  34
ATOM     34  O4  IDS d 506      -9.303  44.431 169.353  0.00  0.00    -0.390 OA
ATOM     35  H   IDS d 506      -9.131  44.958 168.558  0.00  0.00     0.210 HD
ENDBRANCH  24  34
BRANCH  25  36
ATOM     36  C6  IDS d 506      -9.578  43.260 172.102  0.00  0.00     0.206 C 
ATOM     37  O62 IDS d 506     -10.454  42.667 171.497  0.00  0.00    -0.646 OA
ATOM     38  O61 IDS d 506      -9.014  42.673 173.015  0.00  0.00    -0.646 OA
ENDBRANCH  25  36
ENDBRANCH  20  21
ENDBRANCH  11  20
BRANCH  12  39
ATOM     39  O3  SGN d 505     -10.674  48.334 175.019  0.00  0.00    -0.391 OA
ATOM     40  H   SGN d 505     -10.037  48.920 174.581  0.00  0.00     0.210 HD
ENDBRANCH  12  39
BRANCH  13  41
ATOM     41  N   SGN d 505     -13.127  48.839 176.566  0.00  0.00    -0.210 NA
ATOM     42  H   SGN d 505     -13.737  49.628 176.354  0.00  0.00     0.140 HD
BRANCH  41  43
ATOM     43  S1  SGN d 505     -13.716  48.109 177.955  0.00  0.00     0.156 S 
BRANCH  43  44
ATOM     44  O3S SGN d 505     -15.133  48.155 177.878  0.00  0.00    -0.296 OA
ATOM     45  H   SGN d 505     -15.423  49.078 177.800  0.00  0.00     0.231 HD
ENDBRANCH  43  44
BRANCH  43  46
ATOM     46  O1S SGN d 505     -13.196  46.759 177.995  0.00  0.00    -0.296 OA
ATOM     47  H   SGN d 505     -12.825  46.581 178.873  0.00  0.00     0.231 HD
ENDBRANCH  43  46
BRANCH  43  48
ATOM     48  O2S SGN d 505     -13.222  48.923 179.041  0.00  0.00    -0.296 OA
ATOM     49  H   SGN d 505     -12.618  48.399 179.590  0.00  0.00     0.231 HD
ENDBRANCH  43  48
ENDBRANCH  41  43
ENDBRANCH  13  41
ENDBRANCH   7   8
ENDBRANCH   2   7
BRANCH   1  50
ATOM     50  O3  IDS d 504     -18.259  49.676 175.165  0.00  0.00    -0.390 OA
ATOM     51  H   IDS d 504     -18.434  49.252 174.310  0.00  0.00     0.210 HD
ENDBRANCH   1  50
BRANCH   6  52
ATOM     52  C6  IDS d 504     -15.979  50.099 171.575  0.00  0.00     0.206 C 
ATOM     53  O62 IDS d 504     -14.948  50.601 171.123  0.00  0.00    -0.646 OA
ATOM     54  O61 IDS d 504     -16.608  49.332 170.857  0.00  0.00    -0.646 OA
ENDBRANCH   6  52
BRANCH   5  55
ATOM     55  O2  IDS d 504     -15.174  51.356 176.270  0.00  0.00    -0.244 OA
BRANCH  55  56
ATOM     56  S   IDS d 504     -14.758  51.922 177.640  0.00  0.00     0.252 S 
ATOM     57  O2S IDS d 504     -15.125  53.308 177.667  0.00  0.00    -0.572 OA
ATOM     58  O3S IDS d 504     -15.452  51.105 178.563  0.00  0.00    -0.572 OA
ATOM     59  O1S IDS d 504     -13.354  51.752 177.733  0.00  0.00    -0.572 OA
ENDBRANCH  55  56
ENDBRANCH   5  55
BRANCH   3  60
ATOM     60  O4  SGN d 503     -17.947  52.525 174.352  0.00  0.00    -0.348 OA
BRANCH  60  61
ATOM     61  C4  SGN d 503     -18.176  53.811 173.876  0.00  0.00     0.186 C 
ATOM     62  C5  SGN d 503     -19.328  54.437 174.682  0.00  0.00     0.181 C 
ATOM     63  O5  SGN d 503     -19.670  55.690 174.176  0.00  0.00    -0.349 OA
ATOM     64  C1  SGN d 503     -20.126  55.648 172.846  0.00  0.00     0.282 C 
ATOM     65  C2  SGN d 503     -19.018  55.092 171.941  0.00  0.00     0.157 C 
ATOM     66  C3  SGN d 503     -18.556  53.721 172.400  0.00  0.00     0.173 C 
BRANCH  62  67
ATOM     67  C6  SGN d 503     -19.008  54.689 176.131  0.00  0.00     0.227 C 
BRANCH  67  68
ATOM     68  O6  SGN d 503     -17.629  54.972 176.219  0.00  0.00    -0.254 OA
BRANCH  68  69
ATOM     69  S2  SGN d 503     -16.996  56.389 176.206  0.00  0.00     0.251 S 
ATOM     70  O6S SGN d 503     -18.058  57.234 176.591  0.00  0.00    -0.572 OA
ATOM     71  O4S SGN d 503     -15.962  56.425 177.184  0.00  0.00    -0.572 OA
ATOM     72  O5S SGN d 503     -16.480  56.616 174.859  0.00  0.00    -0.572 OA
ENDBRANCH  68  69
ENDBRANCH  67  68
ENDBRANCH  62  67
BRANCH  64  73
ATOM     73  O4  IDS d 502     -21.298  54.888 172.729  0.00  0.00    -0.348 OA
BRANCH  73  74
ATOM     74  C4  IDS d 502     -22.470  55.546 173.137  0.00  0.00     0.195 C 
ATOM     75  C3  IDS d 502     -23.073  56.313 171.945  0.00  0.00     0.185 C 
ATOM     76  C2  IDS d 502     -23.643  55.346 170.903  0.00  0.00     0.231 C 
ATOM     77  C1  IDS d 502     -24.529  54.280 171.541  0.00  0.00     0.291 C 
ATOM     78  O5  IDS d 502     -23.878  53.650 172.616  0.00  0.00    -0.340 OA
ATOM     79  C5  IDS d 502     -23.474  54.519 173.656  0.00  0.00     0.257 C 
BRANCH  75  80
ATOM     80  O3  IDS d 502     -24.130  57.128 172.411  0.00  0.00    -0.390 OA
ATOM     81  H   IDS d 502     -23.773  57.975 172.720  0.00  0.00     0.210 HD
ENDBRANCH  75  80
BRANCH  76  82
ATOM     82  O2  IDS d 502     -22.557  54.700 170.295  0.00  0.00    -0.244 OA
BRANCH  82  83
ATOM     83  S   IDS d 502     -22.383  54.336 168.784  0.00  0.00     0.252 S 
ATOM     84  O3S IDS d 502     -21.170  53.562 168.729  0.00  0.00    -0.572 OA
ATOM     85  O2S IDS d 502     -22.304  55.595 168.081  0.00  0.00    -0.572 OA
ATOM     86  O1S IDS d 502     -23.533  53.566 168.397  0.00  0.00    -0.572 OA
ENDBRANCH  82  83
ENDBRANCH  76  82
BRANCH  77  87
ATOM     87  O1  IDS d 502     -25.733  54.892 171.923  0.00  0.00    -0.368 OA
ATOM     88  H   IDS d 502     -25.549  55.593 172.567  0.00  0.00     0.212 HD
ENDBRANCH  77  87
BRANCH  79  89
ATOM     89  C6  IDS d 502     -22.991  53.727 174.862  0.00  0.00     0.206 C 
ATOM     90  O61 IDS d 502     -22.870  52.527 174.816  0.00  0.00    -0.646 OA
ATOM     91  O62 IDS d 502     -22.710  54.285 175.905  0.00  0.00    -0.646 OA
ENDBRANCH  79  89
ENDBRANCH  73  74
ENDBRANCH  64  73
BRANCH  65  92
ATOM     92  N   SGN d 503     -19.458  55.066 170.557  0.00  0.00    -0.210 NA
ATOM     93  H   SGN d 503     -20.444  54.807 170.554  0.00  0.00     0.140 HD
BRANCH  92  94
ATOM     94  S1  SGN d 503     -19.313  56.439 169.695  0.00  0.00     0.156 S 
BRANCH  94  95
ATOM     95  O2S SGN d 503     -20.526  57.232 169.894  0.00  0.00    -0.296 OA
ATOM     96  H   SGN d 503     -20.305  58.176 169.851  0.00  0.00     0.231 HD
ENDBRANCH  94  95
BRANCH  94  97
ATOM     97  O1S SGN d 503     -19.148  56.034 168.312  0.00  0.00    -0.296 OA
ATOM     98  H   SGN d 503     -18.905  55.096 168.278  0.00  0.00     0.231 HD
ENDBRANCH  94  97
BRANCH  94  99
ATOM     99  O3S SGN d 503     -18.121  57.048 170.239  0.00  0.00    -0.296 OA
ATOM    100  H   SGN d 503     -17.982  56.733 171.146  0.00  0.00     0.231 HD
ENDBRANCH  94  99
ENDBRANCH  92  94
ENDBRANCH  65  92
BRANCH  66 101
ATOM    101  O3  SGN d 503     -17.407  53.331 171.672  0.00  0.00    -0.391 OA
ATOM    102  H   SGN d 503     -17.566  52.474 171.250  0.00  0.00     0.210 HD
ENDBRANCH  66 101
ENDBRANCH  60  61
ENDBRANCH   3  60
TORSDOF 40
ENDMDL
MODEL 3
REMARK VINA RESULT:      -5.2      0.977      1.388
REMARK WARNING: 32 MAX_TORS EXCEEDED!!!
REMARK  40 active torsions:
REMARK  status: ('A' for Active; 'I' for Inactive)
REMARK    1 I    between atoms: C6_1  and  C5_8 
REMARK    2 I    between atoms: C6_1  and  O6_57 
REMARK    3 I    between atoms: O4_2  and  C4_49 
REMARK    4 I    between atoms: O6_3  and  C6_7 
REMARK    5 I    between atoms: O6_3  and  S2_58 
REMARK    6 I    between atoms: S_4  and  O2_6 
REMARK    7 I    between atoms: O3_5  and  C3_81 
REMARK    8 I    between atoms: O2_6  and  C2_11 
REMARK    9 I    between atoms: C6_7  and  C5_54 
REMARK   10 I    between atoms: O4_9  and  C4_32 
REMARK   11 I    between atoms: O4_9  and  C1_39 
REMARK   12 I    between atoms: O3_12  and  C3_18 
REMARK   13 I    between atoms: N_13  and  C2_52 
REMARK   14 I    between atoms: N_13  and  S1_45 
REMARK   15 I    between atoms: O3_17  and  C3_83 
REMARK   16 I    between atoms: C4_20  and  O4_44 
REMARK   17 I    between atoms: N_21  and  C2_66 
REMARK   18 I    between atoms: N_21  and  S1_53 
REMARK   19 I    between atoms: O3_22  and  C3_65 
REMARK   20 I    between atoms: C4_23  and  O4_74 
REMARK   21 I    between atoms: C1_25  and  O1_72 
REMARK   22 I    between atoms: C2_28  and  O2_69 
REMARK   23 I    between atoms: C4_33  and  O4_61 
REMARK   24 I    between atoms: O2S_34  and  S1_45 
REMARK   25 I    between atoms: C6_37  and  C5_47 
REMARK   26 I    between atoms: O2_38  and  C2_77 
REMARK   27 I    between atoms: O2_38  and  S_50 
REMARK   28 I    between atoms: O3S_40  and  S1_53 
REMARK   29 I    between atoms: O1S_42  and  S1_45 
REMARK   30 I    between atoms: O1S_43  and  S1_53 
REMARK   31 I    between atoms: O4_44  and  C1_46 
REMARK   32 I    between atoms: S1_45  and  O3S_60 
REMARK   33 I    between atoms: C6_48  and  C5_84 
REMARK   34 I    between atoms: C6_51  and  C5_87 
REMARK   35 I    between atoms: S1_53  and  O2S_55 
REMARK   36 I    between atoms: C1_56  and  O4_74 
REMARK   37 I    between atoms: O6_57  and  S2_82 
REMARK   38 I    between atoms: O4_61  and  C1_70 
REMARK   39 I    between atoms: C3_63  and  O3_79 
REMARK   40 I    between atoms: O2_69  and  S_76 
ROOT
ATOM      1  C3  IDS d 504     -17.136  50.295 175.181  0.00  0.00     0.185 C 
ATOM      2  C4  IDS d 504     -16.453  49.902 173.881  0.00  0.00     0.195 C 
ATOM      3  C1  IDS d 504     -16.447  52.718 174.667  0.00  0.00     0.294 C 
ATOM      4  O5  IDS d 504     -15.822  52.192 173.491  0.00  0.00    -0.340 OA
ATOM      5  C2  IDS d 504     -16.582  51.660 175.744  0.00  0.00     0.231 C 
ATOM      6  C5  IDS d 504     -16.492  51.090 172.922  0.00  0.00     0.257 C 
ENDROOT
BRANCH   2   7
ATOM      7  O4  IDS d 504     -15.107  49.535 174.150  0.00  0.00    -0.348 OA
BRANCH   7   8
ATOM      8  C1  SGN d 505     -14.957  48.209 174.582  0.00  0.00     0.282 C 
ATOM      9  O5  SGN d 505     -14.946  47.338 173.487  0.00  0.00    -0.349 OA
ATOM     10  C5  SGN d 505     -13.860  47.524 172.632  0.00  0.00     0.181 C 
ATOM     11  C4  SGN d 505     -12.582  47.203 173.336  0.00  0.00     0.186 C 
ATOM     12  C3  SGN d 505     -12.442  48.231 174.496  0.00  0.00     0.173 C 
ATOM     13  C2  SGN d 505     -13.684  48.026 175.386  0.00  0.00     0.157 C 
BRANCH  10  14
ATOM     14  C6  SGN d 505     -14.105  46.648 171.447  0.00  0.00     0.227 C 
BRANCH  14  15
ATOM     15  O6  SGN d 505     -14.101  47.503 170.355  0.00  0.00    -0.254 OA
BRANCH  15  16
ATOM     16  S2  SGN d 505     -14.662  47.229 168.968  0.00  0.00     0.251 S 
ATOM     17  O5S SGN d 505     -16.010  46.776 169.206  0.00  0.00    -0.572 OA
ATOM     18  O4S SGN d 505     -13.784  46.228 168.407  0.00  0.00    -0.572 OA
ATOM     19  O6S SGN d 505     -14.619  48.489 168.237  0.00  0.00    -0.572 OA
ENDBRANCH  15  16
ENDBRANCH  14  15
ENDBRANCH  10  14
BRANCH  11  20
ATOM     20  O4  SGN d 505     -11.574  47.258 172.349  0.00  0.00    -0.348 OA
BRANCH  20  21
ATOM     21  C1  IDS d 506     -10.513  46.367 172.285  0.00  0.00     0.294 C 
ATOM     22  C2  IDS d 506      -9.579  46.787 171.141  0.00  0.00     0.231 C 
ATOM     23  C3  IDS d 506      -8.549  45.690 170.753  0.00  0.00     0.185 C 
ATOM     24  C4  IDS d 506      -9.116  44.256 170.815  0.00  0.00     0.189 C 
ATOM     25  C5  IDS d 506     -10.061  44.097 172.011  0.00  0.00     0.256 C 
ATOM     26  O5  IDS d 506     -11.029  45.094 171.991  0.00  0.00    -0.340 OA
BRANCH  22  27
ATOM     27  O2  IDS d 506     -10.332  47.070 169.978  0.00  0.00    -0.244 OA
BRANCH  27  28
ATOM     28  S   IDS d 506     -10.237  48.341 169.029  0.00  0.00     0.252 S 
ATOM     29  O1S IDS d 506      -9.096  49.067 169.494  0.00  0.00    -0.572 OA
ATOM     30  O2S IDS d 506     -10.042  47.880 167.683  0.00  0.00    -0.572 OA
ATOM     31  O3S IDS d 506     -11.481  49.056 169.213  0.00  0.00    -0.572 OA
ENDBRANCH  27  28
ENDBRANCH  22  27
BRANCH  23  32
ATOM     32  O3  IDS d 506      -7.439  45.778 171.643  0.00  0.00    -0.390 OA
ATOM     33  H   IDS d 506      -7.163  44.885 171.905  0.00  0.00     0.210 HD
ENDBRANCH  23  32
BRANCH  24  34
ATOM     34  O4  IDS d 506      -9.823  44.034 169.618  0.00  0.00    -0.390 OA
ATOM     35  H   IDS d 506     -10.735  43.776 169.824  0.00  0.00     0.210 HD
ENDBRANCH  24  34
BRANCH  25  36
ATOM     36  C6  IDS d 506     -10.732  42.746 172.171  0.00  0.00     0.206 C 
ATOM     37  O62 IDS d 506     -11.476  42.289 171.320  0.00  0.00    -0.646 OA
ATOM     38  O61 IDS d 506     -10.521  42.072 173.170  0.00  0.00    -0.646 OA
ENDBRANCH  25  36
ENDBRANCH  20  21
ENDBRANCH  11  20
BRANCH  12  39
ATOM     39  O3  SGN d 505     -11.282  47.955 175.271  0.00  0.00    -0.391 OA
ATOM     40  H   SGN d 505     -11.495  47.293 175.947  0.00  0.00     0.210 HD
ENDBRANCH  12  39
BRANCH  13  41
ATOM     41  N   SGN d 505     -13.744  48.877 176.597  0.00  0.00    -0.210 NA
ATOM     42  H   SGN d 505     -14.607  49.418 176.549  0.00  0.00     0.140 HD
BRANCH  41  43
ATOM     43  S1  SGN d 505     -13.717  48.107 178.085  0.00  0.00     0.156 S 
BRANCH  43  44
ATOM     44  O3S SGN d 505     -13.082  48.991 178.997  0.00  0.00    -0.296 OA
ATOM     45  H   SGN d 505     -13.113  48.612 179.889  0.00  0.00     0.231 HD
ENDBRANCH  43  44
BRANCH  43  46
ATOM     46  O1S SGN d 505     -15.086  47.808 178.448  0.00  0.00    -0.296 OA
ATOM     47  H   SGN d 505     -15.402  47.056 177.924  0.00  0.00     0.231 HD
ENDBRANCH  43  46
BRANCH  43  48
ATOM     48  O2S SGN d 505     -12.930  46.915 177.873  0.00  0.00    -0.296 OA
ATOM     49  H   SGN d 505     -12.641  46.878 176.948  0.00  0.00     0.231 HD
ENDBRANCH  43  48
ENDBRANCH  41  43
ENDBRANCH  13  41
ENDBRANCH   7   8
ENDBRANCH   2   7
BRANCH   1  50
ATOM     50  O3  IDS d 504     -18.525  50.423 174.901  0.00  0.00    -0.390 OA
ATOM     51  H   IDS d 504     -18.717  50.033 174.034  0.00  0.00     0.210 HD
ENDBRANCH   1  50
BRANCH   6  52
ATOM     52  C6  IDS d 504     -15.955  50.806 171.509  0.00  0.00     0.206 C 
ATOM     53  O62 IDS d 504     -15.300  51.651 170.895  0.00  0.00    -0.646 OA
ATOM     54  O61 IDS d 504     -16.180  49.739 170.953  0.00  0.00    -0.646 OA
ENDBRANCH   6  52
BRANCH   5  55
ATOM     55  O2  IDS d 504     -15.304  51.469 176.347  0.00  0.00    -0.244 OA
BRANCH  55  56
ATOM     56  S   IDS d 504     -14.895  51.860 177.779  0.00  0.00     0.252 S 
ATOM     57  O2S IDS d 504     -13.463  51.855 177.837  0.00  0.00    -0.572 OA
ATOM     58  O3S IDS d 504     -15.494  53.129 177.962  0.00  0.00    -0.572 OA
ATOM     59  O1S IDS d 504     -15.456  50.882 178.637  0.00  0.00    -0.572 OA
ENDBRANCH  55  56
ENDBRANCH   5  55
BRANCH   3  60
ATOM     60  O4  SGN d 503     -17.715  53.247 174.409  0.00  0.00    -0.348 OA
BRANCH  60  61
ATOM     61  C4  SGN d 503     -17.696  54.456 173.723  0.00  0.00     0.186 C 
ATOM     62  C5  SGN d 503     -18.266  55.553 174.639  0.00  0.00     0.181 C 
ATOM     63  O5  SGN d 503     -18.367  56.767 173.963  0.00  0.00    -0.349 OA
ATOM     64  C1  SGN d 503     -19.233  56.719 172.857  0.00  0.00     0.282 C 
ATOM     65  C2  SGN d 503     -18.714  55.690 171.843  0.00  0.00     0.157 C 
ATOM     66  C3  SGN d 503     -18.557  54.317 172.470  0.00  0.00     0.173 C 
BRANCH  62  67
ATOM     67  C6  SGN d 503     -17.419  55.859 175.844  0.00  0.00     0.227 C 
BRANCH  67  68
ATOM     68  O6  SGN d 503     -16.266  56.535 175.393  0.00  0.00    -0.254 OA
BRANCH  68  69
ATOM     69  S2  SGN d 503     -14.813  56.253 175.858  0.00  0.00     0.251 S 
ATOM     70  O6S SGN d 503     -14.944  56.023 177.244  0.00  0.00    -0.572 OA
ATOM     71  O4S SGN d 503     -14.356  55.073 175.207  0.00  0.00    -0.572 OA
ATOM     72  O5S SGN d 503     -14.014  57.420 175.497  0.00  0.00    -0.572 OA
ENDBRANCH  68  69
ENDBRANCH  67  68
ENDBRANCH  62  67
BRANCH  64  73
ATOM     73  O4  IDS d 502     -20.546  56.421 173.246  0.00  0.00    -0.348 OA
BRANCH  73  74
ATOM     74  C4  IDS d 502     -21.235  57.482 173.857  0.00  0.00     0.195 C 
ATOM     75  C3  IDS d 502     -21.871  58.376 172.775  0.00  0.00     0.185 C 
ATOM     76  C2  IDS d 502     -23.029  57.655 172.080  0.00  0.00     0.231 C 
ATOM     77  C1  IDS d 502     -23.987  57.019 173.082  0.00  0.00     0.291 C 
ATOM     78  O5  IDS d 502     -23.298  56.230 174.019  0.00  0.00    -0.340 OA
ATOM     79  C5  IDS d 502     -22.321  56.922 174.772  0.00  0.00     0.257 C 
BRANCH  75  80
ATOM     80  O3  IDS d 502     -22.385  59.542 173.388  0.00  0.00    -0.390 OA
ATOM     81  H   IDS d 502     -22.081  59.585 174.308  0.00  0.00     0.210 HD
ENDBRANCH  75  80
BRANCH  76  82
ATOM     82  O2  IDS d 502     -22.473  56.631 171.299  0.00  0.00    -0.244 OA
BRANCH  82  83
ATOM     83  S   IDS d 502     -23.192  55.748 170.226  0.00  0.00     0.252 S 
ATOM     84  O3S IDS d 502     -23.395  54.477 170.873  0.00  0.00    -0.572 OA
ATOM     85  O2S IDS d 502     -22.292  55.689 169.097  0.00  0.00    -0.572 OA
ATOM     86  O1S IDS d 502     -24.433  56.395 169.903  0.00  0.00    -0.572 OA
ENDBRANCH  82  83
ENDBRANCH  76  82
BRANCH  77  87
ATOM     87  O1  IDS d 502     -24.728  58.048 173.683  0.00  0.00    -0.368 OA
ATOM     88  H   IDS d 502     -24.968  58.707 173.014  0.00  0.00     0.212 HD
ENDBRANCH  77  87
BRANCH  79  89
ATOM     89  C6  IDS d 502     -21.796  56.050 175.903  0.00  0.00     0.206 C 
ATOM     90  O61 IDS d 502     -22.079  54.878 175.974  0.00  0.00    -0.646 OA
ATOM     91  O62 IDS d 502     -21.073  56.510 176.765  0.00  0.00    -0.646 OA
ENDBRANCH  79  89
ENDBRANCH  73  74
ENDBRANCH  64  73
BRANCH  65  92
ATOM     92  N   SGN d 503     -19.579  55.644 170.677  0.00  0.00    -0.210 NA
ATOM     93  H   SGN d 503     -20.518  55.895 170.983  0.00  0.00     0.140 HD
BRANCH  92  94
ATOM     94  S1  SGN d 503     -19.202  56.608 169.421  0.00  0.00     0.156 S 
BRANCH  94  95
ATOM     95  O2S SGN d 503     -17.802  57.006 169.556  0.00  0.00    -0.296 OA
ATOM     96  H   SGN d 503     -17.268  56.234 169.800  0.00  0.00     0.231 HD
ENDBRANCH  94  95
BRANCH  94  97
ATOM     97  O1S SGN d 503     -20.102  57.743 169.498  0.00  0.00    -0.296 OA
ATOM     98  H   SGN d 503     -20.027  58.270 168.688  0.00  0.00     0.231 HD
ENDBRANCH  94  97
BRANCH  94  99
ATOM     99  O3S SGN d 503     -19.464  55.771 168.271  0.00  0.00    -0.296 OA
ATOM    100  H   SGN d 503     -18.789  55.932 167.595  0.00  0.00     0.231 HD
ENDBRANCH  94  99
ENDBRANCH  92  94
ENDBRANCH  65  92
BRANCH  66 101
ATOM    101  O3  SGN d 503     -17.891  53.450 171.572  0.00  0.00    -0.391 OA
ATOM    102  H   SGN d 503     -17.655  53.937 170.767  0.00  0.00     0.210 HD
ENDBRANCH  66 101
ENDBRANCH  60  61
ENDBRANCH   3  60
TORSDOF 40
ENDMDL
MODEL 4
REMARK VINA RESULT:      -5.0      0.924      1.358
REMARK WARNING: 32 MAX_TORS EXCEEDED!!!
REMARK  40 active torsions:
REMARK  status: ('A' for Active; 'I' for Inactive)
REMARK    1 I    between atoms: C6_1  and  C5_8 
REMARK    2 I    between atoms: C6_1  and  O6_57 
REMARK    3 I    between atoms: O4_2  and  C4_49 
REMARK    4 I    between atoms: O6_3  and  C6_7 
REMARK    5 I    between atoms: O6_3  and  S2_58 
REMARK    6 I    between atoms: S_4  and  O2_6 
REMARK    7 I    between atoms: O3_5  and  C3_81 
REMARK    8 I    between atoms: O2_6  and  C2_11 
REMARK    9 I    between atoms: C6_7  and  C5_54 
REMARK   10 I    between atoms: O4_9  and  C4_32 
REMARK   11 I    between atoms: O4_9  and  C1_39 
REMARK   12 I    between atoms: O3_12  and  C3_18 
REMARK   13 I    between atoms: N_13  and  C2_52 
REMARK   14 I    between atoms: N_13  and  S1_45 
REMARK   15 I    between atoms: O3_17  and  C3_83 
REMARK   16 I    between atoms: C4_20  and  O4_44 
REMARK   17 I    between atoms: N_21  and  C2_66 
REMARK   18 I    between atoms: N_21  and  S1_53 
REMARK   19 I    between atoms: O3_22  and  C3_65 
REMARK   20 I    between atoms: C4_23  and  O4_74 
REMARK   21 I    between atoms: C1_25  and  O1_72 
REMARK   22 I    between atoms: C2_28  and  O2_69 
REMARK   23 I    between atoms: C4_33  and  O4_61 
REMARK   24 I    between atoms: O2S_34  and  S1_45 
REMARK   25 I    between atoms: C6_37  and  C5_47 
REMARK   26 I    between atoms: O2_38  and  C2_77 
REMARK   27 I    between atoms: O2_38  and  S_50 
REMARK   28 I    between atoms: O3S_40  and  S1_53 
REMARK   29 I    between atoms: O1S_42  and  S1_45 
REMARK   30 I    between atoms: O1S_43  and  S1_53 
REMARK   31 I    between atoms: O4_44  and  C1_46 
REMARK   32 I    between atoms: S1_45  and  O3S_60 
REMARK   33 I    between atoms: C6_48  and  C5_84 
REMARK   34 I    between atoms: C6_51  and  C5_87 
REMARK   35 I    between atoms: S1_53  and  O2S_55 
REMARK   36 I    between atoms: C1_56  and  O4_74 
REMARK   37 I    between atoms: O6_57  and  S2_82 
REMARK   38 I    between atoms: O4_61  and  C1_70 
REMARK   39 I    between atoms: C3_63  and  O3_79 
REMARK   40 I    between atoms: O2_69  and  S_76 
ROOT
ATOM      1  C3  IDS d 504     -16.949  50.197 175.152  0.00  0.00     0.185 C 
ATOM      2  C4  IDS d 504     -16.256  49.811 173.854  0.00  0.00     0.195 C 
ATOM      3  C1  IDS d 504     -16.424  52.643 174.559  0.00  0.00     0.294 C 
ATOM      4  O5  IDS d 504     -15.780  52.124 173.391  0.00  0.00    -0.340 OA
ATOM      5  C2  IDS d 504     -16.478  51.611 175.667  0.00  0.00     0.231 C 
ATOM      6  C5  IDS d 504     -16.383  50.965 172.862  0.00  0.00     0.257 C 
ENDROOT
BRANCH   2   7
ATOM      7  O4  IDS d 504     -14.886  49.539 174.116  0.00  0.00    -0.348 OA
BRANCH   7   8
ATOM      8  C1  SGN d 505     -14.640  48.226 174.540  0.00  0.00     0.282 C 
ATOM      9  O5  SGN d 505     -14.648  47.351 173.447  0.00  0.00    -0.349 OA
ATOM     10  C5  SGN d 505     -13.628  47.590 172.528  0.00  0.00     0.181 C 
ATOM     11  C4  SGN d 505     -12.294  47.341 173.154  0.00  0.00     0.186 C 
ATOM     12  C3  SGN d 505     -12.140  48.381 174.301  0.00  0.00     0.173 C 
ATOM     13  C2  SGN d 505     -13.313  48.115 175.265  0.00  0.00     0.157 C 
BRANCH  10  14
ATOM     14  C6  SGN d 505     -13.897  46.696 171.361  0.00  0.00     0.227 C 
BRANCH  14  15
ATOM     15  O6  SGN d 505     -14.017  47.547 170.272  0.00  0.00    -0.254 OA
BRANCH  15  16
ATOM     16  S2  SGN d 505     -14.603  47.218 168.907  0.00  0.00     0.251 S 
ATOM     17  O5S SGN d 505     -15.956  46.804 169.184  0.00  0.00    -0.572 OA
ATOM     18  O4S SGN d 505     -13.752  46.173 168.383  0.00  0.00    -0.572 OA
ATOM     19  O6S SGN d 505     -14.544  48.440 168.115  0.00  0.00    -0.572 OA
ENDBRANCH  15  16
ENDBRANCH  14  15
ENDBRANCH  10  14
BRANCH  11  20
ATOM     20  O4  SGN d 505     -11.352  47.445 172.106  0.00  0.00    -0.348 OA
BRANCH  20  21
ATOM     21  C1  IDS d 506     -10.171  46.719 172.063  0.00  0.00     0.294 C 
ATOM     22  C2  IDS d 506      -9.313  47.237 170.899  0.00  0.00     0.231 C 
ATOM     23  C3  IDS d 506      -8.132  46.293 170.539  0.00  0.00     0.185 C 
ATOM     24  C4  IDS d 506      -8.480  44.793 170.649  0.00  0.00     0.189 C 
ATOM     25  C5  IDS d 506      -9.388  44.534 171.856  0.00  0.00     0.256 C 
ATOM     26  O5  IDS d 506     -10.493  45.375 171.812  0.00  0.00    -0.340 OA
BRANCH  22  27
ATOM     27  O2  IDS d 506     -10.102  47.368 169.734  0.00  0.00    -0.244 OA
BRANCH  27  28
ATOM     28  S   IDS d 506      -9.721  48.072 168.361  0.00  0.00     0.252 S 
ATOM     29  O1S IDS d 506      -8.956  49.222 168.732  0.00  0.00    -0.572 OA
ATOM     30  O2S IDS d 506      -8.930  47.152 167.593  0.00  0.00    -0.572 OA
ATOM     31  O3S IDS d 506     -10.981  48.404 167.732  0.00  0.00    -0.572 OA
ENDBRANCH  27  28
ENDBRANCH  22  27
BRANCH  23  32
ATOM     32  O3  IDS d 506      -7.045  46.572 171.418  0.00  0.00    -0.390 OA
ATOM     33  H   IDS d 506      -6.904  45.815 172.008  0.00  0.00     0.210 HD
ENDBRANCH  23  32
BRANCH  24  34
ATOM     34  O4  IDS d 506      -9.149  44.431 169.464  0.00  0.00    -0.390 OA
ATOM     35  H   IDS d 506     -10.076  44.712 169.517  0.00  0.00     0.210 HD
ENDBRANCH  24  34
BRANCH  25  36
ATOM     36  C6  IDS d 506      -9.851  43.104 172.062  0.00  0.00     0.206 C 
ATOM     37  O62 IDS d 506      -9.258  42.156 171.576  0.00  0.00    -0.646 OA
ATOM     38  O61 IDS d 506     -10.839  42.873 172.745  0.00  0.00    -0.646 OA
ENDBRANCH  25  36
ENDBRANCH  20  21
ENDBRANCH  11  20
BRANCH  12  39
ATOM     39  O3  SGN d 505     -10.922  48.171 175.004  0.00  0.00    -0.391 OA
ATOM     40  H   SGN d 505     -10.903  47.267 175.356  0.00  0.00     0.210 HD
ENDBRANCH  12  39
BRANCH  13  41
ATOM     41  N   SGN d 505     -13.344  48.967 176.476  0.00  0.00    -0.210 NA
ATOM     42  H   SGN d 505     -14.037  49.699 176.317  0.00  0.00     0.140 HD
BRANCH  41  43
ATOM     43  S1  SGN d 505     -13.719  48.229 177.933  0.00  0.00     0.156 S 
BRANCH  43  44
ATOM     44  O3S SGN d 505     -13.162  46.924 177.891  0.00  0.00    -0.296 OA
ATOM     45  H   SGN d 505     -12.693  46.799 177.051  0.00  0.00     0.231 HD
ENDBRANCH  43  44
BRANCH  43  46
ATOM     46  O1S SGN d 505     -13.167  49.046 178.993  0.00  0.00    -0.296 OA
ATOM     47  H   SGN d 505     -13.886  49.505 179.454  0.00  0.00     0.231 HD
ENDBRANCH  43  46
BRANCH  43  48
ATOM     48  O2S SGN d 505     -15.162  48.183 177.966  0.00  0.00    -0.296 OA
ATOM     49  H   SGN d 505     -15.520  49.024 177.640  0.00  0.00     0.231 HD
ENDBRANCH  43  48
ENDBRANCH  41  43
ENDBRANCH  13  41
ENDBRANCH   7   8
ENDBRANCH   2   7
BRANCH   1  50
ATOM     50  O3  IDS d 504     -18.346  50.226 174.887  0.00  0.00    -0.390 OA
ATOM     51  H   IDS d 504     -18.613  51.133 174.667  0.00  0.00     0.210 HD
ENDBRANCH   1  50
BRANCH   6  52
ATOM     52  C6  IDS d 504     -15.845  50.675 171.451  0.00  0.00     0.206 C 
ATOM     53  O62 IDS d 504     -16.192  49.668 170.831  0.00  0.00    -0.646 OA
ATOM     54  O61 IDS d 504     -15.043  51.430 170.915  0.00  0.00    -0.646 OA
ENDBRANCH   6  52
BRANCH   5  55
ATOM     55  O2  IDS d 504     -15.183  51.520 176.259  0.00  0.00    -0.244 OA
BRANCH  55  56
ATOM     56  S   IDS d 504     -14.783  51.983 177.672  0.00  0.00     0.252 S 
ATOM     57  O2S IDS d 504     -15.462  51.141 178.613  0.00  0.00    -0.572 OA
ATOM     58  O3S IDS d 504     -13.373  51.864 177.675  0.00  0.00    -0.572 OA
ATOM     59  O1S IDS d 504     -15.200  53.333 177.783  0.00  0.00    -0.572 OA
ENDBRANCH  55  56
ENDBRANCH   5  55
BRANCH   3  60
ATOM     60  O4  SGN d 503     -17.727  53.081 174.303  0.00  0.00    -0.348 OA
BRANCH  60  61
ATOM     61  C4  SGN d 503     -17.795  54.227 173.518  0.00  0.00     0.186 C 
ATOM     62  C5  SGN d 503     -18.256  55.401 174.398  0.00  0.00     0.181 C 
ATOM     63  O5  SGN d 503     -18.443  56.554 173.638  0.00  0.00    -0.349 OA
ATOM     64  C1  SGN d 503     -19.436  56.416 172.652  0.00  0.00     0.282 C 
ATOM     65  C2  SGN d 503     -19.038  55.301 171.675  0.00  0.00     0.157 C 
ATOM     66  C3  SGN d 503     -18.800  53.985 172.394  0.00  0.00     0.173 C 
BRANCH  62  67
ATOM     67  C6  SGN d 503     -17.272  55.805 175.462  0.00  0.00     0.227 C 
BRANCH  67  68
ATOM     68  O6  SGN d 503     -16.033  56.038 174.829  0.00  0.00    -0.254 OA
BRANCH  68  69
ATOM     69  S2  SGN d 503     -14.668  56.205 175.548  0.00  0.00     0.251 S 
ATOM     70  O6S SGN d 503     -13.903  55.119 175.072  0.00  0.00    -0.572 OA
ATOM     71  O4S SGN d 503     -14.088  57.434 175.127  0.00  0.00    -0.572 OA
ATOM     72  O5S SGN d 503     -14.936  56.191 176.983  0.00  0.00    -0.572 OA
ENDBRANCH  68  69
ENDBRANCH  67  68
ENDBRANCH  62  67
BRANCH  64  73
ATOM     73  O4  IDS d 502     -20.691  56.160 173.219  0.00  0.00    -0.348 OA
BRANCH  73  74
ATOM     74  C4  IDS d 502     -21.319  57.281 173.788  0.00  0.00     0.195 C 
ATOM     75  C3  IDS d 502     -22.112  58.035 172.704  0.00  0.00     0.185 C 
ATOM     76  C2  IDS d 502     -23.334  57.226 172.256  0.00  0.00     0.231 C 
ATOM     77  C1  IDS d 502     -24.138  56.706 173.444  0.00  0.00     0.291 C 
ATOM     78  O5  IDS d 502     -23.313  56.040 174.367  0.00  0.00    -0.340 OA
ATOM     79  C5  IDS d 502     -22.264  56.824 174.898  0.00  0.00     0.257 C 
BRANCH  75  80
ATOM     80  O3  IDS d 502     -22.570  59.261 173.239  0.00  0.00    -0.390 OA
ATOM     81  H   IDS d 502     -22.185  59.393 174.119  0.00  0.00     0.210 HD
ENDBRANCH  75  80
BRANCH  76  82
ATOM     82  O2  IDS d 502     -22.860  56.121 171.534  0.00  0.00    -0.244 OA
BRANCH  82  83
ATOM     83  S   IDS d 502     -23.676  55.165 170.603  0.00  0.00     0.252 S 
ATOM     84  O3S IDS d 502     -24.888  55.885 170.308  0.00  0.00    -0.572 OA
ATOM     85  O2S IDS d 502     -23.887  53.957 171.367  0.00  0.00    -0.572 OA
ATOM     86  O1S IDS d 502     -22.883  54.936 169.427  0.00  0.00    -0.572 OA
ENDBRANCH  82  83
ENDBRANCH  76  82
BRANCH  77  87
ATOM     87  O1  IDS d 502     -24.818  57.792 174.014  0.00  0.00    -0.368 OA
ATOM     88  H   IDS d 502     -25.046  57.584 174.934  0.00  0.00     0.212 HD
ENDBRANCH  77  87
BRANCH  79  89
ATOM     89  C6  IDS d 502     -21.575  56.097 176.044  0.00  0.00     0.206 C 
ATOM     90  O61 IDS d 502     -21.317  56.661 177.080  0.00  0.00    -0.646 OA
ATOM     91  O62 IDS d 502     -21.270  54.924 175.948  0.00  0.00    -0.646 OA
ENDBRANCH  79  89
ENDBRANCH  73  74
ENDBRANCH  64  73
BRANCH  65  92
ATOM     92  N   SGN d 503     -20.036  55.159 170.629  0.00  0.00    -0.210 NA
ATOM     93  H   SGN d 503     -20.941  55.395 171.037  0.00  0.00     0.140 HD
BRANCH  92  94
ATOM     94  S1  SGN d 503     -19.856  56.065 169.289  0.00  0.00     0.156 S 
BRANCH  94  95
ATOM     95  O2S SGN d 503     -20.175  55.233 168.130  0.00  0.00    -0.296 OA
ATOM     96  H   SGN d 503     -20.414  54.341 168.429  0.00  0.00     0.231 HD
ENDBRANCH  94  95
BRANCH  94  97
ATOM     97  O1S SGN d 503     -18.474  56.505 169.281  0.00  0.00    -0.296 OA
ATOM     98  H   SGN d 503     -17.982  56.011 168.607  0.00  0.00     0.231 HD
ENDBRANCH  94  97
BRANCH  94  99
ATOM     99  O3S SGN d 503     -20.783  57.155 169.499  0.00  0.00    -0.296 OA
ATOM    100  H   SGN d 503     -20.573  57.879 168.890  0.00  0.00     0.231 HD
ENDBRANCH  94  99
ENDBRANCH  92  94
ENDBRANCH  65  92
BRANCH  66 101
ATOM    101  O3  SGN d 503     -18.243  53.041 171.500  0.00  0.00    -0.391 OA
ATOM    102  H   SGN d 503     -18.017  52.232 171.984  0.00  0.00     0.210 HD
ENDBRANCH  66 101
ENDBRANCH  60  61
ENDBRANCH   3  60
TORSDOF 40
ENDMDL
MODEL 5
REMARK VINA RESULT:      -4.9      1.364      2.258
REMARK WARNING: 32 MAX_TORS EXCEEDED!!!
REMARK  40 active torsions:
REMARK  status: ('A' for Active; 'I' for Inactive)
REMARK    1 I    between atoms: C6_1  and  C5_8 
REMARK    2 I    between atoms: C6_1  and  O6_57 
REMARK    3 I    between atoms: O4_2  and  C4_49 
REMARK    4 I    between atoms: O6_3  and  C6_7 
REMARK    5 I    between atoms: O6_3  and  S2_58 
REMARK    6 I    between atoms: S_4  and  O2_6 
REMARK    7 I    between atoms: O3_5  and  C3_81 
REMARK    8 I    between atoms: O2_6  and  C2_11 
REMARK    9 I    between atoms: C6_7  and  C5_54 
REMARK   10 I    between atoms: O4_9  and  C4_32 
REMARK   11 I    between atoms: O4_9  and  C1_39 
REMARK   12 I    between atoms: O3_12  and  C3_18 
REMARK   13 I    between atoms: N_13  and  C2_52 
REMARK   14 I    between atoms: N_13  and  S1_45 
REMARK   15 I    between atoms: O3_17  and  C3_83 
REMARK   16 I    between atoms: C4_20  and  O4_44 
REMARK   17 I    between atoms: N_21  and  C2_66 
REMARK   18 I    between atoms: N_21  and  S1_53 
REMARK   19 I    between atoms: O3_22  and  C3_65 
REMARK   20 I    between atoms: C4_23  and  O4_74 
REMARK   21 I    between atoms: C1_25  and  O1_72 
REMARK   22 I    between atoms: C2_28  and  O2_69 
REMARK   23 I    between atoms: C4_33  and  O4_61 
REMARK   24 I    between atoms: O2S_34  and  S1_45 
REMARK   25 I    between atoms: C6_37  and  C5_47 
REMARK   26 I    between atoms: O2_38  and  C2_77 
REMARK   27 I    between atoms: O2_38  and  S_50 
REMARK   28 I    between atoms: O3S_40  and  S1_53 
REMARK   29 I    between atoms: O1S_42  and  S1_45 
REMARK   30 I    between atoms: O1S_43  and  S1_53 
REMARK   31 I    between atoms: O4_44  and  C1_46 
REMARK   32 I    between atoms: S1_45  and  O3S_60 
REMARK   33 I    between atoms: C6_48  and  C5_84 
REMARK   34 I    between atoms: C6_51  and  C5_87 
REMARK   35 I    between atoms: S1_53  and  O2S_55 
REMARK   36 I    between atoms: C1_56  and  O4_74 
REMARK   37 I    between atoms: O6_57  and  S2_82 
REMARK   38 I    between atoms: O4_61  and  C1_70 
REMARK   39 I    between atoms: C3_63  and  O3_79 
REMARK   40 I    between atoms: O2_69  and  S_76 
ROOT
ATOM      1  C3  IDS d 504     -17.006  50.322 174.969  0.00  0.00     0.185 C 
ATOM      2  C4  IDS d 504     -16.221  49.996 173.707  0.00  0.00     0.195 C 
ATOM      3  C1  IDS d 504     -16.522  52.799 174.481  0.00  0.00     0.294 C 
ATOM      4  O5  IDS d 504     -15.790  52.336 173.342  0.00  0.00    -0.340 OA
ATOM      5  C2  IDS d 504     -16.613  51.733 175.554  0.00  0.00     0.231 C 
ATOM      6  C5  IDS d 504     -16.322  51.176 172.743  0.00  0.00     0.257 C 
ENDROOT
BRANCH   2   7
ATOM      7  O4  IDS d 504     -14.863  49.757 174.048  0.00  0.00    -0.348 OA
BRANCH   7   8
ATOM      8  C1  SGN d 505     -14.615  48.459 174.514  0.00  0.00     0.282 C 
ATOM      9  O5  SGN d 505     -14.621  47.549 173.451  0.00  0.00    -0.349 OA
ATOM     10  C5  SGN d 505     -13.599  47.760 172.526  0.00  0.00     0.181 C 
ATOM     11  C4  SGN d 505     -12.266  47.532 173.162  0.00  0.00     0.186 C 
ATOM     12  C3  SGN d 505     -12.115  48.609 174.276  0.00  0.00     0.173 C 
ATOM     13  C2  SGN d 505     -13.290  48.373 175.245  0.00  0.00     0.157 C 
BRANCH  10  14
ATOM     14  C6  SGN d 505     -13.864  46.828 171.388  0.00  0.00     0.227 C 
BRANCH  14  15
ATOM     15  O6  SGN d 505     -13.979  47.643 170.271  0.00  0.00    -0.254 OA
BRANCH  15  16
ATOM     16  S2  SGN d 505     -14.542  47.265 168.909  0.00  0.00     0.251 S 
ATOM     17  O5S SGN d 505     -15.917  46.916 169.171  0.00  0.00    -0.572 OA
ATOM     18  O4S SGN d 505     -13.719  46.163 168.464  0.00  0.00    -0.572 OA
ATOM     19  O6S SGN d 505     -14.418  48.440 168.058  0.00  0.00    -0.572 OA
ENDBRANCH  15  16
ENDBRANCH  14  15
ENDBRANCH  10  14
BRANCH  11  20
ATOM     20  O4  SGN d 505     -11.322  47.604 172.115  0.00  0.00    -0.348 OA
BRANCH  20  21
ATOM     21  C1  IDS d 506     -10.189  46.807 172.048  0.00  0.00     0.294 C 
ATOM     22  C2  IDS d 506      -9.367  47.214 170.816  0.00  0.00     0.231 C 
ATOM     23  C3  IDS d 506      -8.264  46.185 170.445  0.00  0.00     0.185 C 
ATOM     24  C4  IDS d 506      -8.691  44.716 170.651  0.00  0.00     0.189 C 
ATOM     25  C5  IDS d 506      -9.545  44.571 171.914  0.00  0.00     0.256 C 
ATOM     26  O5  IDS d 506     -10.601  45.474 171.883  0.00  0.00    -0.340 OA
BRANCH  22  27
ATOM     27  O2  IDS d 506     -10.210  47.337 169.687  0.00  0.00    -0.244 OA
BRANCH  27  28
ATOM     28  S   IDS d 506     -10.280  48.526 168.636  0.00  0.00     0.252 S 
ATOM     29  O1S IDS d 506     -11.427  49.291 169.016  0.00  0.00    -0.572 OA
ATOM     30  O2S IDS d 506      -9.078  49.301 168.758  0.00  0.00    -0.572 OA
ATOM     31  O3S IDS d 506     -10.421  47.891 167.343  0.00  0.00    -0.572 OA
ENDBRANCH  27  28
ENDBRANCH  22  27
BRANCH  23  32
ATOM     32  O3  IDS d 506      -7.116  46.440 171.251  0.00  0.00    -0.390 OA
ATOM     33  H   IDS d 506      -6.740  45.599 171.554  0.00  0.00     0.210 HD
ENDBRANCH  23  32
BRANCH  24  34
ATOM     34  O4  IDS d 506      -9.444  44.338 169.522  0.00  0.00    -0.390 OA
ATOM     35  H   IDS d 506     -10.269  44.846 169.498  0.00  0.00     0.210 HD
ENDBRANCH  24  34
BRANCH  25  36
ATOM     36  C6  IDS d 506     -10.078  43.183 172.218  0.00  0.00     0.206 C 
ATOM     37  O62 IDS d 506     -10.902  42.637 171.505  0.00  0.00    -0.646 OA
ATOM     38  O61 IDS d 506      -9.669  42.571 173.195  0.00  0.00    -0.646 OA
ENDBRANCH  25  36
ENDBRANCH  20  21
ENDBRANCH  11  20
BRANCH  12  39
ATOM     39  O3  SGN d 505     -10.899  48.424 174.988  0.00  0.00    -0.391 OA
ATOM     40  H   SGN d 505     -10.766  49.165 175.600  0.00  0.00     0.210 HD
ENDBRANCH  12  39
BRANCH  13  41
ATOM     41  N   SGN d 505     -13.325  49.263 176.428  0.00  0.00    -0.210 NA
ATOM     42  H   SGN d 505     -13.966  50.028 176.217  0.00  0.00     0.140 HD
BRANCH  41  43
ATOM     43  S1  SGN d 505     -13.806  48.594 177.887  0.00  0.00     0.156 S 
BRANCH  43  44
ATOM     44  O3S SGN d 505     -15.205  48.811 178.001  0.00  0.00    -0.296 OA
ATOM     45  H   SGN d 505     -15.410  49.138 178.891  0.00  0.00     0.231 HD
ENDBRANCH  43  44
BRANCH  43  46
ATOM     46  O1S SGN d 505     -13.452  47.190 177.863  0.00  0.00    -0.296 OA
ATOM     47  H   SGN d 505     -14.250  46.658 177.726  0.00  0.00     0.231 HD
ENDBRANCH  43  46
BRANCH  43  48
ATOM     48  O2S SGN d 505     -13.076  49.329 178.893  0.00  0.00    -0.296 OA
ATOM     49  H   SGN d 505     -12.920  50.235 178.582  0.00  0.00     0.231 HD
ENDBRANCH  43  48
ENDBRANCH  41  43
ENDBRANCH  13  41
ENDBRANCH   7   8
ENDBRANCH   2   7
BRANCH   1  50
ATOM     50  O3  IDS d 504     -18.384  50.318 174.616  0.00  0.00    -0.390 OA
ATOM     51  H   IDS d 504     -18.865  50.935 175.190  0.00  0.00     0.210 HD
ENDBRANCH   1  50
BRANCH   6  52
ATOM     52  C6  IDS d 504     -15.687  50.945 171.361  0.00  0.00     0.206 C 
ATOM     53  O62 IDS d 504     -15.766  49.851 170.799  0.00  0.00    -0.646 OA
ATOM     54  O61 IDS d 504     -15.073  51.839 170.793  0.00  0.00    -0.646 OA
ENDBRANCH   6  52
BRANCH   5  55
ATOM     55  O2  IDS d 504     -15.356  51.662 176.224  0.00  0.00    -0.244 OA
BRANCH  55  56
ATOM     56  S   IDS d 504     -14.999  52.298 177.580  0.00  0.00     0.252 S 
ATOM     57  O2S IDS d 504     -15.818  51.677 178.579  0.00  0.00    -0.572 OA
ATOM     58  O3S IDS d 504     -13.611  52.051 177.709  0.00  0.00    -0.572 OA
ATOM     59  O1S IDS d 504     -15.281  53.682 177.459  0.00  0.00    -0.572 OA
ENDBRANCH  55  56
ENDBRANCH   5  55
BRANCH   3  60
ATOM     60  O4  SGN d 503     -17.819  53.207 174.155  0.00  0.00    -0.348 OA
BRANCH  60  61
ATOM     61  C4  SGN d 503     -17.921  54.550 173.813  0.00  0.00     0.186 C 
ATOM     62  C5  SGN d 503     -19.296  55.072 174.266  0.00  0.00     0.181 C 
ATOM     63  O5  SGN d 503     -19.494  56.388 173.853  0.00  0.00    -0.349 OA
ATOM     64  C1  SGN d 503     -19.480  56.542 172.455  0.00  0.00     0.282 C 
ATOM     65  C2  SGN d 503     -18.115  56.104 171.904  0.00  0.00     0.157 C 
ATOM     66  C3  SGN d 503     -17.785  54.676 172.297  0.00  0.00     0.173 C 
BRANCH  62  67
ATOM     67  C6  SGN d 503     -19.486  55.111 175.758  0.00  0.00     0.227 C 
BRANCH  67  68
ATOM     68  O6  SGN d 503     -20.828  55.469 176.007  0.00  0.00    -0.254 OA
BRANCH  68  69
ATOM     69  S2  SGN d 503     -21.315  56.857 176.501  0.00  0.00     0.251 S 
ATOM     70  O6S SGN d 503     -22.292  57.226 175.552  0.00  0.00    -0.572 OA
ATOM     71  O4S SGN d 503     -21.915  56.690 177.781  0.00  0.00    -0.572 OA
ATOM     72  O5S SGN d 503     -20.145  57.727 176.555  0.00  0.00    -0.572 OA
ENDBRANCH  68  69
ENDBRANCH  67  68
ENDBRANCH  62  67
BRANCH  64  73
ATOM     73  O4  IDS d 502     -20.519  55.822 171.850  0.00  0.00    -0.348 OA
BRANCH  73  74
ATOM     74  C4  IDS d 502     -21.789  56.407 171.973  0.00  0.00     0.195 C 
ATOM     75  C3  IDS d 502     -22.011  57.410 170.825  0.00  0.00     0.185 C 
ATOM     76  C2  IDS d 502     -22.165  56.684 169.485  0.00  0.00     0.231 C 
ATOM     77  C1  IDS d 502     -23.158  55.529 169.575  0.00  0.00     0.291 C 
ATOM     78  O5  IDS d 502     -22.861  54.683 170.658  0.00  0.00    -0.340 OA
ATOM     79  C5  IDS d 502     -22.857  55.316 171.922  0.00  0.00     0.257 C 
BRANCH  75  80
ATOM     80  O3  IDS d 502     -23.200  58.135 171.071  0.00  0.00    -0.390 OA
ATOM     81  H   IDS d 502     -23.526  57.927 171.960  0.00  0.00     0.210 HD
ENDBRANCH  75  80
BRANCH  76  82
ATOM     82  O2  IDS d 502     -20.910  56.154 169.151  0.00  0.00    -0.244 OA
BRANCH  82  83
ATOM     83  S   IDS d 502     -20.414  55.681 167.745  0.00  0.00     0.252 S 
ATOM     84  O3S IDS d 502     -21.178  56.460 166.805  0.00  0.00    -0.572 OA
ATOM     85  O2S IDS d 502     -20.689  54.264 167.686  0.00  0.00    -0.572 OA
ATOM     86  O1S IDS d 502     -19.009  55.969 167.670  0.00  0.00    -0.572 OA
ENDBRANCH  82  83
ENDBRANCH  76  82
BRANCH  77  87
ATOM     87  O1  IDS d 502     -24.448  56.074 169.655  0.00  0.00    -0.368 OA
ATOM     88  H   IDS d 502     -24.893  55.978 168.798  0.00  0.00     0.212 HD
ENDBRANCH  77  87
BRANCH  79  89
ATOM     89  C6  IDS d 502     -22.754  54.288 173.039  0.00  0.00     0.206 C 
ATOM     90  O61 IDS d 502     -23.297  54.461 174.103  0.00  0.00    -0.646 OA
ATOM     91  O62 IDS d 502     -22.123  53.260 172.887  0.00  0.00    -0.646 OA
ENDBRANCH  79  89
ENDBRANCH  73  74
ENDBRANCH  64  73
BRANCH  65  92
ATOM     92  N   SGN d 503     -18.068  56.281 170.463  0.00  0.00    -0.210 NA
ATOM     93  H   SGN d 503     -19.018  56.473 170.148  0.00  0.00     0.140 HD
BRANCH  92  94
ATOM     94  S1  SGN d 503     -17.114  57.464 169.881  0.00  0.00     0.156 S 
BRANCH  94  95
ATOM     95  O2S SGN d 503     -17.965  58.459 169.231  0.00  0.00    -0.296 OA
ATOM     96  H   SGN d 503     -17.411  59.097 168.755  0.00  0.00     0.231 HD
ENDBRANCH  94  95
BRANCH  94  97
ATOM     97  O1S SGN d 503     -16.207  56.828 168.944  0.00  0.00    -0.296 OA
ATOM     98  H   SGN d 503     -15.960  57.461 168.253  0.00  0.00     0.231 HD
ENDBRANCH  94  97
BRANCH  94  99
ATOM     99  O3S SGN d 503     -16.437  57.955 171.060  0.00  0.00    -0.296 OA
ATOM    100  H   SGN d 503     -15.591  57.491 171.164  0.00  0.00     0.231 HD
ENDBRANCH  94  99
ENDBRANCH  92  94
ENDBRANCH  65  92
BRANCH  66 101
ATOM    101  O3  SGN d 503     -16.446  54.377 171.949  0.00  0.00    -0.391 OA
ATOM    102  H   SGN d 503     -16.422  53.564 171.422  0.00  0.00     0.210 HD
ENDBRANCH  66 101
ENDBRANCH  60  61
ENDBRANCH   3  60
TORSDOF 40
ENDMDL
MODEL 6
REMARK VINA RESULT:      -4.7      2.942     13.738
REMARK WARNING: 32 MAX_TORS EXCEEDED!!!
REMARK  40 active torsions:
REMARK  status: ('A' for Active; 'I' for Inactive)
REMARK    1 I    between atoms: C6_1  and  C5_8 
REMARK    2 I    between atoms: C6_1  and  O6_57 
REMARK    3 I    between atoms: O4_2  and  C4_49 
REMARK    4 I    between atoms: O6_3  and  C6_7 
REMARK    5 I    between atoms: O6_3  and  S2_58 
REMARK    6 I    between atoms: S_4  and  O2_6 
REMARK    7 I    between atoms: O3_5  and  C3_81 
REMARK    8 I    between atoms: O2_6  and  C2_11 
REMARK    9 I    between atoms: C6_7  and  C5_54 
REMARK   10 I    between atoms: O4_9  and  C4_32 
REMARK   11 I    between atoms: O4_9  and  C1_39 
REMARK   12 I    between atoms: O3_12  and  C3_18 
REMARK   13 I    between atoms: N_13  and  C2_52 
REMARK   14 I    between atoms: N_13  and  S1_45 
REMARK   15 I    between atoms: O3_17  and  C3_83 
REMARK   16 I    between atoms: C4_20  and  O4_44 
REMARK   17 I    between atoms: N_21  and  C2_66 
REMARK   18 I    between atoms: N_21  and  S1_53 
REMARK   19 I    between atoms: O3_22  and  C3_65 
REMARK   20 I    between atoms: C4_23  and  O4_74 
REMARK   21 I    between atoms: C1_25  and  O1_72 
REMARK   22 I    between atoms: C2_28  and  O2_69 
REMARK   23 I    between atoms: C4_33  and  O4_61 
REMARK   24 I    between atoms: O2S_34  and  S1_45 
REMARK   25 I    between atoms: C6_37  and  C5_47 
REMARK   26 I    between atoms: O2_38  and  C2_77 
REMARK   27 I    between atoms: O2_38  and  S_50 
REMARK   28 I    between atoms: O3S_40  and  S1_53 
REMARK   29 I    between atoms: O1S_42  and  S1_45 
REMARK   30 I    between atoms: O1S_43  and  S1_53 
REMARK   31 I    between atoms: O4_44  and  C1_46 
REMARK   32 I    between atoms: S1_45  and  O3S_60 
REMARK   33 I    between atoms: C6_48  and  C5_84 
REMARK   34 I    between atoms: C6_51  and  C5_87 
REMARK   35 I    between atoms: S1_53  and  O2S_55 
REMARK   36 I    between atoms: C1_56  and  O4_74 
REMARK   37 I    between atoms: O6_57  and  S2_82 
REMARK   38 I    between atoms: O4_61  and  C1_70 
REMARK   39 I    between atoms: C3_63  and  O3_79 
REMARK   40 I    between atoms: O2_69  and  S_76 
ROOT
ATOM      1  C3  IDS d 504     -14.168  46.647 173.366  0.00  0.00     0.185 C 
ATOM      2  C4  IDS d 504     -14.296  48.007 174.034  0.00  0.00     0.195 C 
ATOM      3  C1  IDS d 504     -12.248  47.648 171.979  0.00  0.00     0.294 C 
ATOM      4  O5  IDS d 504     -12.508  48.872 172.674  0.00  0.00    -0.340 OA
ATOM      5  C2  IDS d 504     -13.471  46.752 171.955  0.00  0.00     0.231 C 
ATOM      6  C5  IDS d 504     -12.937  48.703 174.006  0.00  0.00     0.257 C 
ENDROOT
BRANCH   2   7
ATOM      7  O4  IDS d 504     -15.258  48.785 173.336  0.00  0.00    -0.348 OA
BRANCH   7   8
ATOM      8  C1  SGN d 505     -16.576  48.572 173.762  0.00  0.00     0.282 C 
ATOM      9  O5  SGN d 505     -16.795  49.185 175.001  0.00  0.00    -0.349 OA
ATOM     10  C5  SGN d 505     -16.687  50.575 174.966  0.00  0.00     0.181 C 
ATOM     11  C4  SGN d 505     -17.759  51.158 174.104  0.00  0.00     0.186 C 
ATOM     12  C3  SGN d 505     -17.503  50.636 172.661  0.00  0.00     0.173 C 
ATOM     13  C2  SGN d 505     -17.579  49.099 172.754  0.00  0.00     0.157 C 
BRANCH  10  14
ATOM     14  C6  SGN d 505     -16.769  51.037 176.385  0.00  0.00     0.227 C 
BRANCH  14  15
ATOM     15  O6  SGN d 505     -15.483  50.903 176.885  0.00  0.00    -0.254 OA
BRANCH  15  16
ATOM     16  S2  SGN d 505     -14.985  51.304 178.266  0.00  0.00     0.251 S 
ATOM     17  O5S SGN d 505     -16.132  51.899 178.906  0.00  0.00    -0.572 OA
ATOM     18  O4S SGN d 505     -13.897  52.222 178.012  0.00  0.00    -0.572 OA
ATOM     19  O6S SGN d 505     -14.547  50.083 178.929  0.00  0.00    -0.572 OA
ENDBRANCH  15  16
ENDBRANCH  14  15
ENDBRANCH  10  14
BRANCH  11  20
ATOM     20  O4  SGN d 505     -17.668  52.558 174.270  0.00  0.00    -0.348 OA
BRANCH  20  21
ATOM     21  C1  IDS d 506     -18.705  53.433 173.986  0.00  0.00     0.294 C 
ATOM     22  C2  IDS d 506     -18.231  54.869 174.251  0.00  0.00     0.231 C 
ATOM     23  C3  IDS d 506     -19.391  55.902 174.294  0.00  0.00     0.185 C 
ATOM     24  C4  IDS d 506     -20.675  55.366 174.962  0.00  0.00     0.189 C 
ATOM     25  C5  IDS d 506     -20.908  53.898 174.589  0.00  0.00     0.256 C 
ATOM     26  O5  IDS d 506     -19.769  53.150 174.859  0.00  0.00    -0.340 OA
BRANCH  22  27
ATOM     27  O2  IDS d 506     -17.571  54.940 175.500  0.00  0.00    -0.244 OA
BRANCH  27  28
ATOM     28  S   IDS d 506     -16.149  55.567 175.827  0.00  0.00     0.252 S 
ATOM     29  O1S IDS d 506     -15.813  56.348 174.676  0.00  0.00    -0.572 OA
ATOM     30  O2S IDS d 506     -16.283  56.396 176.991  0.00  0.00    -0.572 OA
ATOM     31  O3S IDS d 506     -15.265  54.439 176.027  0.00  0.00    -0.572 OA
ENDBRANCH  27  28
ENDBRANCH  22  27
BRANCH  23  32
ATOM     32  O3  IDS d 506     -19.702  56.289 172.959  0.00  0.00    -0.390 OA
ATOM     33  H   IDS d 506     -18.933  56.727 172.561  0.00  0.00     0.210 HD
ENDBRANCH  23  32
BRANCH  24  34
ATOM     34  O4  IDS d 506     -20.501  55.481 176.355  0.00  0.00    -0.390 OA
ATOM     35  H   IDS d 506     -20.944  56.284 176.671  0.00  0.00     0.210 HD
ENDBRANCH  24  34
BRANCH  25  36
ATOM     36  C6  IDS d 506     -22.114  53.222 175.215  0.00  0.00     0.206 C 
ATOM     37  O62 IDS d 506     -22.962  53.849 175.826  0.00  0.00    -0.646 OA
ATOM     38  O61 IDS d 506     -22.266  52.014 175.100  0.00  0.00    -0.646 OA
ENDBRANCH  25  36
ENDBRANCH  20  21
ENDBRANCH  11  20
BRANCH  12  39
ATOM     39  O3  SGN d 505     -18.523  51.085 171.778  0.00  0.00    -0.391 OA
ATOM     40  H   SGN d 505     -18.147  51.232 170.896  0.00  0.00     0.210 HD
ENDBRANCH  12  39
BRANCH  13  41
ATOM     41  N   SGN d 505     -17.411  48.377 171.472  0.00  0.00    -0.210 NA
ATOM     42  H   SGN d 505     -16.741  47.624 171.631  0.00  0.00     0.140 HD
BRANCH  41  43
ATOM     43  S1  SGN d 505     -18.778  47.694 170.783  0.00  0.00     0.156 S 
BRANCH  43  44
ATOM     44  O3S SGN d 505     -19.159  46.606 171.611  0.00  0.00    -0.296 OA
ATOM     45  H   SGN d 505     -19.411  46.939 172.486  0.00  0.00     0.231 HD
ENDBRANCH  43  44
BRANCH  43  46
ATOM     46  O1S SGN d 505     -19.790  48.727 170.704  0.00  0.00    -0.296 OA
ATOM     47  H   SGN d 505     -19.474  49.445 170.135  0.00  0.00     0.231 HD
ENDBRANCH  43  46
BRANCH  43  48
ATOM     48  O2S SGN d 505     -18.350  47.240 169.481  0.00  0.00    -0.296 OA
ATOM     49  H   SGN d 505     -17.383  47.283 169.424  0.00  0.00     0.231 HD
ENDBRANCH  43  48
ENDBRANCH  41  43
ENDBRANCH  13  41
ENDBRANCH   7   8
ENDBRANCH   2   7
BRANCH   1  50
ATOM     50  O3  IDS d 504     -13.384  45.831 174.227  0.00  0.00    -0.390 OA
ATOM     51  H   IDS d 504     -13.027  45.082 173.724  0.00  0.00     0.210 HD
ENDBRANCH   1  50
BRANCH   6  52
ATOM     52  C6  IDS d 504     -12.872  50.039 174.765  0.00  0.00     0.206 C 
ATOM     53  O62 IDS d 504     -13.221  51.093 174.230  0.00  0.00    -0.646 OA
ATOM     54  O61 IDS d 504     -12.453  50.090 175.915  0.00  0.00    -0.646 OA
ENDBRANCH   6  52
BRANCH   5  55
ATOM     55  O2  IDS d 504     -14.382  47.264 170.985  0.00  0.00    -0.244 OA
BRANCH  55  56
ATOM     56  S   IDS d 504     -14.927  46.520 169.753  0.00  0.00     0.252 S 
ATOM     57  O2S IDS d 504     -13.822  45.864 169.118  0.00  0.00    -0.572 OA
ATOM     58  O3S IDS d 504     -15.905  45.652 170.293  0.00  0.00    -0.572 OA
ATOM     59  O1S IDS d 504     -15.502  47.506 168.912  0.00  0.00    -0.572 OA
ENDBRANCH  55  56
ENDBRANCH   5  55
BRANCH   3  60
ATOM     60  O4  SGN d 503     -11.188  46.929 172.539  0.00  0.00    -0.348 OA
BRANCH  60  61
ATOM     61  C4  SGN d 503      -9.932  47.442 172.234  0.00  0.00     0.186 C 
ATOM     62  C5  SGN d 503      -9.234  46.487 171.250  0.00  0.00     0.181 C 
ATOM     63  O5  SGN d 503      -7.929  46.900 170.992  0.00  0.00    -0.349 OA
ATOM     64  C1  SGN d 503      -7.112  46.915 172.136  0.00  0.00     0.282 C 
ATOM     65  C2  SGN d 503      -7.692  47.895 173.167  0.00  0.00     0.157 C 
ATOM     66  C3  SGN d 503      -9.125  47.547 173.526  0.00  0.00     0.173 C 
BRANCH  62  67
ATOM     67  C6  SGN d 503      -9.882  46.409 169.894  0.00  0.00     0.227 C 
BRANCH  67  68
ATOM     68  O6  SGN d 503      -9.880  47.710 169.347  0.00  0.00    -0.254 OA
BRANCH  68  69
ATOM     69  S2  SGN d 503      -9.368  48.094 167.933  0.00  0.00     0.251 S 
ATOM     70  O6S SGN d 503      -8.464  49.149 168.180  0.00  0.00    -0.572 OA
ATOM     71  O4S SGN d 503      -8.677  46.975 167.389  0.00  0.00    -0.572 OA
ATOM     72  O5S SGN d 503     -10.538  48.454 167.138  0.00  0.00    -0.572 OA
ENDBRANCH  68  69
ENDBRANCH  67  68
ENDBRANCH  62  67
BRANCH  64  73
ATOM     73  O4  IDS d 502      -6.975  45.633 172.686  0.00  0.00    -0.348 OA
BRANCH  73  74
ATOM     74  C4  IDS d 502      -6.094  44.787 171.994  0.00  0.00     0.195 C 
ATOM     75  C3  IDS d 502      -4.685  44.895 172.608  0.00  0.00     0.185 C 
ATOM     76  C2  IDS d 502      -4.645  44.261 174.001  0.00  0.00     0.231 C 
ATOM     77  C1  IDS d 502      -5.285  42.876 174.015  0.00  0.00     0.291 C 
ATOM     78  O5  IDS d 502      -6.563  42.898 173.429  0.00  0.00    -0.340 OA
ATOM     79  C5  IDS d 502      -6.593  43.347 172.089  0.00  0.00     0.257 C 
BRANCH  75  80
ATOM     80  O3  IDS d 502      -3.770  44.199 171.783  0.00  0.00    -0.390 OA
ATOM     81  H   IDS d 502      -3.763  43.261 172.029  0.00  0.00     0.210 HD
ENDBRANCH  75  80
BRANCH  76  82
ATOM     82  O2  IDS d 502      -5.383  45.090 174.858  0.00  0.00    -0.244 OA
BRANCH  82  83
ATOM     83  S   IDS d 502      -5.287  45.186 176.416  0.00  0.00     0.252 S 
ATOM     84  O3S IDS d 502      -6.433  44.460 176.900  0.00  0.00    -0.572 OA
ATOM     85  O2S IDS d 502      -5.316  46.596 176.728  0.00  0.00    -0.572 OA
ATOM     86  O1S IDS d 502      -4.051  44.566 176.806  0.00  0.00    -0.572 OA
ENDBRANCH  82  83
ENDBRANCH  76  82
BRANCH  77  87
ATOM     87  O1  IDS d 502      -4.411  41.990 173.369  0.00  0.00    -0.368 OA
ATOM     88  H   IDS d 502      -3.503  42.153 173.672  0.00  0.00     0.212 HD
ENDBRANCH  77  87
BRANCH  79  89
ATOM     89  C6  IDS d 502      -7.967  43.121 171.475  0.00  0.00     0.206 C 
ATOM     90  O61 IDS d 502      -8.934  42.909 172.166  0.00  0.00    -0.646 OA
ATOM     91  O62 IDS d 502      -8.128  43.152 170.271  0.00  0.00    -0.646 OA
ENDBRANCH  79  89
ENDBRANCH  73  74
ENDBRANCH  64  73
BRANCH  65  92
ATOM     92  N   SGN d 503      -6.848  47.949 174.348  0.00  0.00    -0.210 NA
ATOM     93  H   SGN d 503      -6.039  47.354 174.172  0.00  0.00     0.140 HD
BRANCH  92  94
ATOM     94  S1  SGN d 503      -6.289  49.407 174.808  0.00  0.00     0.156 S 
BRANCH  94  95
ATOM     95  O2S SGN d 503      -6.006  50.188 173.605  0.00  0.00    -0.296 OA
ATOM     96  H   SGN d 503      -5.122  50.580 173.675  0.00  0.00     0.231 HD
ENDBRANCH  94  95
BRANCH  94  97
ATOM     97  O1S SGN d 503      -5.091  49.153 175.586  0.00  0.00    -0.296 OA
ATOM     98  H   SGN d 503      -4.556  49.961 175.627  0.00  0.00     0.231 HD
ENDBRANCH  94  97
BRANCH  94  99
ATOM     99  O3S SGN d 503      -7.368  49.937 175.610  0.00  0.00    -0.296 OA
ATOM    100  H   SGN d 503      -7.968  49.218 175.860  0.00  0.00     0.231 HD
ENDBRANCH  94  99
ENDBRANCH  92  94
ENDBRANCH  65  92
BRANCH  66 101
ATOM    101  O3  SGN d 503      -9.688  48.578 174.314  0.00  0.00    -0.391 OA
ATOM    102  H   SGN d 503     -10.651  48.581 174.203  0.00  0.00     0.210 HD
ENDBRANCH  66 101
ENDBRANCH  60  61
ENDBRANCH   3  60
TORSDOF 40
ENDMDL
MODEL 7
REMARK VINA RESULT:      -4.6      1.309      2.183
REMARK WARNING: 32 MAX_TORS EXCEEDED!!!
REMARK  40 active torsions:
REMARK  status: ('A' for Active; 'I' for Inactive)
REMARK    1 I    between atoms: C6_1  and  C5_8 
REMARK    2 I    between atoms: C6_1  and  O6_57 
REMARK    3 I    between atoms: O4_2  and  C4_49 
REMARK    4 I    between atoms: O6_3  and  C6_7 
REMARK    5 I    between atoms: O6_3  and  S2_58 
REMARK    6 I    between atoms: S_4  and  O2_6 
REMARK    7 I    between atoms: O3_5  and  C3_81 
REMARK    8 I    between atoms: O2_6  and  C2_11 
REMARK    9 I    between atoms: C6_7  and  C5_54 
REMARK   10 I    between atoms: O4_9  and  C4_32 
REMARK   11 I    between atoms: O4_9  and  C1_39 
REMARK   12 I    between atoms: O3_12  and  C3_18 
REMARK   13 I    between atoms: N_13  and  C2_52 
REMARK   14 I    between atoms: N_13  and  S1_45 
REMARK   15 I    between atoms: O3_17  and  C3_83 
REMARK   16 I    between atoms: C4_20  and  O4_44 
REMARK   17 I    between atoms: N_21  and  C2_66 
REMARK   18 I    between atoms: N_21  and  S1_53 
REMARK   19 I    between atoms: O3_22  and  C3_65 
REMARK   20 I    between atoms: C4_23  and  O4_74 
REMARK   21 I    between atoms: C1_25  and  O1_72 
REMARK   22 I    between atoms: C2_28  and  O2_69 
REMARK   23 I    between atoms: C4_33  and  O4_61 
REMARK   24 I    between atoms: O2S_34  and  S1_45 
REMARK   25 I    between atoms: C6_37  and  C5_47 
REMARK   26 I    between atoms: O2_38  and  C2_77 
REMARK   27 I    between atoms: O2_38  and  S_50 
REMARK   28 I    between atoms: O3S_40  and  S1_53 
REMARK   29 I    between atoms: O1S_42  and  S1_45 
REMARK   30 I    between atoms: O1S_43  and  S1_53 
REMARK   31 I    between atoms: O4_44  and  C1_46 
REMARK   32 I    between atoms: S1_45  and  O3S_60 
REMARK   33 I    between atoms: C6_48  and  C5_84 
REMARK   34 I    between atoms: C6_51  and  C5_87 
REMARK   35 I    between atoms: S1_53  and  O2S_55 
REMARK   36 I    between atoms: C1_56  and  O4_74 
REMARK   37 I    between atoms: O6_57  and  S2_82 
REMARK   38 I    between atoms: O4_61  and  C1_70 
REMARK   39 I    between atoms: C3_63  and  O3_79 
REMARK   40 I    between atoms: O2_69  and  S_76 
ROOT
ATOM      1  C3  IDS d 504     -16.845  50.056 175.291  0.00  0.00     0.185 C 
ATOM      2  C4  IDS d 504     -16.200  49.595 173.993  0.00  0.00     0.195 C 
ATOM      3  C1  IDS d 504     -16.500  52.465 174.462  0.00  0.00     0.294 C 
ATOM      4  O5  IDS d 504     -15.888  51.882 173.307  0.00  0.00    -0.340 OA
ATOM      5  C2  IDS d 504     -16.434  51.534 175.656  0.00  0.00     0.231 C 
ATOM      6  C5  IDS d 504     -16.448  50.648 172.915  0.00  0.00     0.257 C 
ENDROOT
BRANCH   2   7
ATOM      7  O4  IDS d 504     -14.805  49.424 174.198  0.00  0.00    -0.348 OA
BRANCH   7   8
ATOM      8  C1  SGN d 505     -14.446  48.133 174.609  0.00  0.00     0.282 C 
ATOM      9  O5  SGN d 505     -14.408  47.264 173.512  0.00  0.00    -0.349 OA
ATOM     10  C5  SGN d 505     -13.428  47.588 172.574  0.00  0.00     0.181 C 
ATOM     11  C4  SGN d 505     -12.066  47.442 173.172  0.00  0.00     0.186 C 
ATOM     12  C3  SGN d 505     -11.972  48.486 174.322  0.00  0.00     0.173 C 
ATOM     13  C2  SGN d 505     -13.100  48.124 175.307  0.00  0.00     0.157 C 
BRANCH  10  14
ATOM     14  C6  SGN d 505     -13.649  46.681 171.407  0.00  0.00     0.227 C 
BRANCH  14  15
ATOM     15  O6  SGN d 505     -14.009  47.516 170.361  0.00  0.00    -0.254 OA
BRANCH  15  16
ATOM     16  S2  SGN d 505     -14.597  47.109 169.017  0.00  0.00     0.251 S 
ATOM     17  O5S SGN d 505     -14.548  48.310 168.222  0.00  0.00    -0.572 OA
ATOM     18  O4S SGN d 505     -15.932  46.648 169.325  0.00  0.00    -0.572 OA
ATOM     19  O6S SGN d 505     -13.746  46.053 168.485  0.00  0.00    -0.572 OA
ENDBRANCH  15  16
ENDBRANCH  14  15
ENDBRANCH  10  14
BRANCH  11  20
ATOM     20  O4  SGN d 505     -11.157  47.625 172.107  0.00  0.00    -0.348 OA
BRANCH  20  21
ATOM     21  C1  IDS d 506      -9.989  46.891 171.962  0.00  0.00     0.294 C 
ATOM     22  C2  IDS d 506      -9.289  47.323 170.665  0.00  0.00     0.231 C 
ATOM     23  C3  IDS d 506      -8.162  46.350 170.221  0.00  0.00     0.185 C 
ATOM     24  C4  IDS d 506      -8.488  44.863 170.477  0.00  0.00     0.189 C 
ATOM     25  C5  IDS d 506      -9.232  44.692 171.806  0.00  0.00     0.256 C 
ATOM     26  O5  IDS d 506     -10.337  45.535 171.846  0.00  0.00    -0.340 OA
BRANCH  22  27
ATOM     27  O2  IDS d 506     -10.223  47.380 169.604  0.00  0.00    -0.244 OA
BRANCH  27  28
ATOM     28  S   IDS d 506     -10.513  48.586 168.612  0.00  0.00     0.252 S 
ATOM     29  O1S IDS d 506     -11.537  49.354 169.250  0.00  0.00    -0.572 OA
ATOM     30  O2S IDS d 506      -9.305  49.350 168.473  0.00  0.00    -0.572 OA
ATOM     31  O3S IDS d 506     -10.947  47.974 167.374  0.00  0.00    -0.572 OA
ENDBRANCH  27  28
ENDBRANCH  22  27
BRANCH  23  32
ATOM     32  O3  IDS d 506      -6.972  46.682 170.932  0.00  0.00    -0.390 OA
ATOM     33  H   IDS d 506      -7.201  47.192 171.725  0.00  0.00     0.210 HD
ENDBRANCH  23  32
BRANCH  24  34
ATOM     34  O4  IDS d 506      -9.304  44.425 169.416  0.00  0.00    -0.390 OA
ATOM     35  H   IDS d 506      -8.788  44.416 168.594  0.00  0.00     0.210 HD
ENDBRANCH  24  34
BRANCH  25  36
ATOM     36  C6  IDS d 506      -9.661  43.282 172.167  0.00  0.00     0.206 C 
ATOM     37  O62 IDS d 506      -9.174  42.679 173.108  0.00  0.00    -0.646 OA
ATOM     38  O61 IDS d 506     -10.532  42.722 171.515  0.00  0.00    -0.646 OA
ENDBRANCH  25  36
ENDBRANCH  20  21
ENDBRANCH  11  20
BRANCH  12  39
ATOM     39  O3  SGN d 505     -10.727  48.370 175.000  0.00  0.00    -0.391 OA
ATOM     40  H   SGN d 505     -10.872  48.440 175.957  0.00  0.00     0.210 HD
ENDBRANCH  12  39
BRANCH  13  41
ATOM     41  N   SGN d 505     -13.175  48.966 176.524  0.00  0.00    -0.210 NA
ATOM     42  H   SGN d 505     -13.792  49.750 176.316  0.00  0.00     0.140 HD
BRANCH  41  43
ATOM     43  S1  SGN d 505     -13.735  48.246 177.930  0.00  0.00     0.156 S 
BRANCH  43  44
ATOM     44  O3S SGN d 505     -13.203  48.989 179.016  0.00  0.00    -0.296 OA
ATOM     45  H   SGN d 505     -12.254  49.132 178.875  0.00  0.00     0.231 HD
ENDBRANCH  43  44
BRANCH  43  46
ATOM     46  O1S SGN d 505     -15.182  48.267 177.885  0.00  0.00    -0.296 OA
ATOM     47  H   SGN d 505     -15.532  47.518 178.392  0.00  0.00     0.231 HD
ENDBRANCH  43  46
BRANCH  43  48
ATOM     48  O2S SGN d 505     -13.202  46.904 177.899  0.00  0.00    -0.296 OA
ATOM     49  H   SGN d 505     -12.865  46.710 177.011  0.00  0.00     0.231 HD
ENDBRANCH  43  48
ENDBRANCH  41  43
ENDBRANCH  13  41
ENDBRANCH   7   8
ENDBRANCH   2   7
BRANCH   1  50
ATOM     50  O3  IDS d 504     -18.254  49.985 175.105  0.00  0.00    -0.390 OA
ATOM     51  H   IDS d 504     -18.485  50.364 174.243  0.00  0.00     0.210 HD
ENDBRANCH   1  50
BRANCH   6  52
ATOM     52  C6  IDS d 504     -15.968  50.265 171.505  0.00  0.00     0.206 C 
ATOM     53  O62 IDS d 504     -14.957  50.774 171.016  0.00  0.00    -0.646 OA
ATOM     54  O61 IDS d 504     -16.589  49.457 170.827  0.00  0.00    -0.646 OA
ENDBRANCH   6  52
BRANCH   5  55
ATOM     55  O2  IDS d 504     -15.107  51.568 176.178  0.00  0.00    -0.244 OA
BRANCH  55  56
ATOM     56  S   IDS d 504     -14.682  52.037 177.581  0.00  0.00     0.252 S 
ATOM     57  O2S IDS d 504     -13.268  51.831 177.697  0.00  0.00    -0.572 OA
ATOM     58  O3S IDS d 504     -15.091  53.391 177.618  0.00  0.00    -0.572 OA
ATOM     59  O1S IDS d 504     -15.404  51.240 178.505  0.00  0.00    -0.572 OA
ENDBRANCH  55  56
ENDBRANCH   5  55
BRANCH   3  60
ATOM     60  O4  SGN d 503     -17.839  52.806 174.245  0.00  0.00    -0.348 OA
BRANCH  60  61
ATOM     61  C4  SGN d 503     -18.031  53.715 173.210  0.00  0.00     0.186 C 
ATOM     62  C5  SGN d 503     -17.890  55.140 173.773  0.00  0.00     0.181 C 
ATOM     63  O5  SGN d 503     -18.177  56.094 172.798  0.00  0.00    -0.349 OA
ATOM     64  C1  SGN d 503     -19.494  56.015 172.312  0.00  0.00     0.282 C 
ATOM     65  C2  SGN d 503     -19.721  54.640 171.667  0.00  0.00     0.157 C 
ATOM     66  C3  SGN d 503     -19.432  53.511 172.640  0.00  0.00     0.173 C 
BRANCH  62  67
ATOM     67  C6  SGN d 503     -16.504  55.488 174.246  0.00  0.00     0.227 C 
BRANCH  67  68
ATOM     68  O6  SGN d 503     -15.784  55.971 173.133  0.00  0.00    -0.254 OA
BRANCH  68  69
ATOM     69  S2  SGN d 503     -14.529  55.303 172.511  0.00  0.00     0.251 S 
ATOM     70  O6S SGN d 503     -15.058  54.477 171.496  0.00  0.00    -0.572 OA
ATOM     71  O4S SGN d 503     -13.717  56.322 171.938  0.00  0.00    -0.572 OA
ATOM     72  O5S SGN d 503     -13.841  54.597 173.587  0.00  0.00    -0.572 OA
ENDBRANCH  68  69
ENDBRANCH  67  68
ENDBRANCH  62  67
BRANCH  64  73
ATOM     73  O4  IDS d 502     -20.431  56.253 173.326  0.00  0.00    -0.348 OA
BRANCH  73  74
ATOM     74  C4  IDS d 502     -20.558  57.600 173.705  0.00  0.00     0.195 C 
ATOM     75  C3  IDS d 502     -21.662  58.271 172.866  0.00  0.00     0.185 C 
ATOM     76  C2  IDS d 502     -23.045  57.739 173.254  0.00  0.00     0.231 C 
ATOM     77  C1  IDS d 502     -23.250  57.738 174.765  0.00  0.00     0.291 C 
ATOM     78  O5  IDS d 502     -22.184  57.104 175.426  0.00  0.00    -0.340 OA
ATOM     79  C5  IDS d 502     -20.914  57.678 175.188  0.00  0.00     0.257 C 
BRANCH  75  80
ATOM     80  O3  IDS d 502     -21.643  59.663 173.112  0.00  0.00    -0.390 OA
ATOM     81  H   IDS d 502     -21.346  60.128 172.314  0.00  0.00     0.210 HD
ENDBRANCH  75  80
BRANCH  76  82
ATOM     82  O2  IDS d 502     -23.123  56.413 172.803  0.00  0.00    -0.244 OA
BRANCH  82  83
ATOM     83  S   IDS d 502     -24.290  55.739 172.009  0.00  0.00     0.252 S 
ATOM     84  O3S IDS d 502     -24.313  56.421 170.741  0.00  0.00    -0.572 OA
ATOM     85  O2S IDS d 502     -25.478  55.945 172.803  0.00  0.00    -0.572 OA
ATOM     86  O1S IDS d 502     -23.962  54.348 171.868  0.00  0.00    -0.572 OA
ENDBRANCH  82  83
ENDBRANCH  76  82
BRANCH  77  87
ATOM     87  O1  IDS d 502     -23.427  59.067 175.178  0.00  0.00    -0.368 OA
ATOM     88  H   IDS d 502     -23.642  59.085 176.124  0.00  0.00     0.212 HD
ENDBRANCH  77  87
BRANCH  79  89
ATOM     89  C6  IDS d 502     -19.868  57.074 176.114  0.00  0.00     0.206 C 
ATOM     90  O61 IDS d 502     -18.803  57.612 176.293  0.00  0.00    -0.646 OA
ATOM     91  O62 IDS d 502     -20.081  56.032 176.704  0.00  0.00    -0.646 OA
ENDBRANCH  79  89
ENDBRANCH  73  74
ENDBRANCH  64  73
BRANCH  65  92
ATOM     92  N   SGN d 503     -21.068  54.545 171.131  0.00  0.00    -0.210 NA
ATOM     93  H   SGN d 503     -21.522  55.445 171.288  0.00  0.00     0.140 HD
BRANCH  92  94
ATOM     94  S1  SGN d 503     -21.226  54.189 169.551  0.00  0.00     0.156 S 
BRANCH  94  95
ATOM     95  O2S SGN d 503     -22.502  54.732 169.087  0.00  0.00    -0.296 OA
ATOM     96  H   SGN d 503     -23.087  54.004 168.826  0.00  0.00     0.231 HD
ENDBRANCH  94  95
BRANCH  94  97
ATOM     97  O1S SGN d 503     -21.184  52.742 169.457  0.00  0.00    -0.296 OA
ATOM     98  H   SGN d 503     -21.937  52.365 169.938  0.00  0.00     0.231 HD
ENDBRANCH  94  97
BRANCH  94  99
ATOM     99  O3S SGN d 503     -20.071  54.817 168.952  0.00  0.00    -0.296 OA
ATOM    100  H   SGN d 503     -20.244  54.984 168.013  0.00  0.00     0.231 HD
ENDBRANCH  94  99
ENDBRANCH  92  94
ENDBRANCH  65  92
BRANCH  66 101
ATOM    101  O3  SGN d 503     -19.454  52.271 171.959  0.00  0.00    -0.391 OA
ATOM    102  H   SGN d 503     -19.126  51.573 172.547  0.00  0.00     0.210 HD
ENDBRANCH  66 101
ENDBRANCH  60  61
ENDBRANCH   3  60
TORSDOF 40
ENDMDL
MODEL 8
REMARK VINA RESULT:      -4.4      2.406     12.537
REMARK WARNING: 32 MAX_TORS EXCEEDED!!!
REMARK  40 active torsions:
REMARK  status: ('A' for Active; 'I' for Inactive)
REMARK    1 I    between atoms: C6_1  and  C5_8 
REMARK    2 I    between atoms: C6_1  and  O6_57 
REMARK    3 I    between atoms: O4_2  and  C4_49 
REMARK    4 I    between atoms: O6_3  and  C6_7 
REMARK    5 I    between atoms: O6_3  and  S2_58 
REMARK    6 I    between atoms: S_4  and  O2_6 
REMARK    7 I    between atoms: O3_5  and  C3_81 
REMARK    8 I    between atoms: O2_6  and  C2_11 
REMARK    9 I    between atoms: C6_7  and  C5_54 
REMARK   10 I    between atoms: O4_9  and  C4_32 
REMARK   11 I    between atoms: O4_9  and  C1_39 
REMARK   12 I    between atoms: O3_12  and  C3_18 
REMARK   13 I    between atoms: N_13  and  C2_52 
REMARK   14 I    between atoms: N_13  and  S1_45 
REMARK   15 I    between atoms: O3_17  and  C3_83 
REMARK   16 I    between atoms: C4_20  and  O4_44 
REMARK   17 I    between atoms: N_21  and  C2_66 
REMARK   18 I    between atoms: N_21  and  S1_53 
REMARK   19 I    between atoms: O3_22  and  C3_65 
REMARK   20 I    between atoms: C4_23  and  O4_74 
REMARK   21 I    between atoms: C1_25  and  O1_72 
REMARK   22 I    between atoms: C2_28  and  O2_69 
REMARK   23 I    between atoms: C4_33  and  O4_61 
REMARK   24 I    between atoms: O2S_34  and  S1_45 
REMARK   25 I    between atoms: C6_37  and  C5_47 
REMARK   26 I    between atoms: O2_38  and  C2_77 
REMARK   27 I    between atoms: O2_38  and  S_50 
REMARK   28 I    between atoms: O3S_40  and  S1_53 
REMARK   29 I    between atoms: O1S_42  and  S1_45 
REMARK   30 I    between atoms: O1S_43  and  S1_53 
REMARK   31 I    between atoms: O4_44  and  C1_46 
REMARK   32 I    between atoms: S1_45  and  O3S_60 
REMARK   33 I    between atoms: C6_48  and  C5_84 
REMARK   34 I    between atoms: C6_51  and  C5_87 
REMARK   35 I    between atoms: S1_53  and  O2S_55 
REMARK   36 I    between atoms: C1_56  and  O4_74 
REMARK   37 I    between atoms: O6_57  and  S2_82 
REMARK   38 I    between atoms: O4_61  and  C1_70 
REMARK   39 I    between atoms: C3_63  and  O3_79 
REMARK   40 I    between atoms: O2_69  and  S_76 
ROOT
ATOM      1  C3  IDS d 504     -14.867  49.207 176.002  0.00  0.00     0.185 C 
ATOM      2  C4  IDS d 504     -15.248  50.368 175.098  0.00  0.00     0.195 C 
ATOM      3  C1  IDS d 504     -14.747  47.758 173.881  0.00  0.00     0.294 C 
ATOM      4  O5  IDS d 504     -15.142  48.934 173.168  0.00  0.00    -0.340 OA
ATOM      5  C2  IDS d 504     -15.184  47.815 175.331  0.00  0.00     0.231 C 
ATOM      6  C5  IDS d 504     -14.648  50.137 173.713  0.00  0.00     0.257 C 
ENDROOT
BRANCH   2   7
ATOM      7  O4  IDS d 504     -16.664  50.450 175.010  0.00  0.00    -0.348 OA
BRANCH   7   8
ATOM      8  C1  SGN d 505     -17.266  51.064 176.116  0.00  0.00     0.282 C 
ATOM      9  O5  SGN d 505     -17.125  52.455 176.039  0.00  0.00    -0.349 OA
ATOM     10  C5  SGN d 505     -17.786  53.027 174.952  0.00  0.00     0.181 C 
ATOM     11  C4  SGN d 505     -19.262  52.841 175.085  0.00  0.00     0.186 C 
ATOM     12  C3  SGN d 505     -19.524  51.308 175.034  0.00  0.00     0.173 C 
ATOM     13  C2  SGN d 505     -18.737  50.712 176.217  0.00  0.00     0.157 C 
BRANCH  10  14
ATOM     14  C6  SGN d 505     -17.382  54.465 174.926  0.00  0.00     0.227 C 
BRANCH  14  15
ATOM     15  O6  SGN d 505     -16.212  54.528 175.668  0.00  0.00    -0.254 OA
BRANCH  15  16
ATOM     16  S2  SGN d 505     -15.238  55.693 175.757  0.00  0.00     0.251 S 
ATOM     17  O5S SGN d 505     -15.954  56.807 175.185  0.00  0.00    -0.572 OA
ATOM     18  O4S SGN d 505     -14.086  55.267 174.996  0.00  0.00    -0.572 OA
ATOM     19  O6S SGN d 505     -14.939  55.889 177.169  0.00  0.00    -0.572 OA
ENDBRANCH  15  16
ENDBRANCH  14  15
ENDBRANCH  10  14
BRANCH  11  20
ATOM     20  O4  SGN d 505     -19.840  53.593 174.038  0.00  0.00    -0.348 OA
BRANCH  20  21
ATOM     21  C1  IDS d 506     -20.996  54.346 174.182  0.00  0.00     0.294 C 
ATOM     22  C2  IDS d 506     -21.398  54.905 172.810  0.00  0.00     0.231 C 
ATOM     23  C3  IDS d 506     -22.469  56.029 172.894  0.00  0.00     0.185 C 
ATOM     24  C4  IDS d 506     -22.285  56.972 174.102  0.00  0.00     0.189 C 
ATOM     25  C5  IDS d 506     -21.831  56.189 175.338  0.00  0.00     0.256 C 
ATOM     26  O5  IDS d 506     -20.710  55.426 175.034  0.00  0.00    -0.340 OA
BRANCH  22  27
ATOM     27  O2  IDS d 506     -20.271  55.462 172.162  0.00  0.00    -0.244 OA
BRANCH  27  28
ATOM     28  S   IDS d 506     -20.158  55.994 170.669  0.00  0.00     0.252 S 
ATOM     29  O1S IDS d 506     -20.388  57.403 170.759  0.00  0.00    -0.572 OA
ATOM     30  O2S IDS d 506     -18.831  55.717 170.196  0.00  0.00    -0.572 OA
ATOM     31  O3S IDS d 506     -21.186  55.295 169.929  0.00  0.00    -0.572 OA
ENDBRANCH  27  28
ENDBRANCH  22  27
BRANCH  23  32
ATOM     32  O3  IDS d 506     -23.755  55.422 172.984  0.00  0.00    -0.390 OA
ATOM     33  H   IDS d 506     -24.419  56.011 172.593  0.00  0.00     0.210 HD
ENDBRANCH  23  32
BRANCH  24  34
ATOM     34  O4  IDS d 506     -21.302  57.917 173.749  0.00  0.00    -0.390 OA
ATOM     35  H   IDS d 506     -20.989  57.737 172.848  0.00  0.00     0.210 HD
ENDBRANCH  24  34
BRANCH  25  36
ATOM     36  C6  IDS d 506     -21.564  56.998 176.593  0.00  0.00     0.206 C 
ATOM     37  O62 IDS d 506     -21.019  58.088 176.556  0.00  0.00    -0.646 OA
ATOM     38  O61 IDS d 506     -21.912  56.568 177.684  0.00  0.00    -0.646 OA
ENDBRANCH  25  36
ENDBRANCH  20  21
ENDBRANCH  11  20
BRANCH  12  39
ATOM     39  O3  SGN d 505     -20.905  51.031 175.226  0.00  0.00    -0.391 OA
ATOM     40  H   SGN d 505     -21.425  51.829 175.040  0.00  0.00     0.210 HD
ENDBRANCH  12  39
BRANCH  13  41
ATOM     41  N   SGN d 505     -18.878  49.248 176.399  0.00  0.00    -0.210 NA
ATOM     42  H   SGN d 505     -18.126  48.943 177.017  0.00  0.00     0.140 HD
BRANCH  41  43
ATOM     43  S1  SGN d 505     -20.317  48.684 177.046  0.00  0.00     0.156 S 
BRANCH  43  44
ATOM     44  O3S SGN d 505     -19.985  47.633 177.941  0.00  0.00    -0.296 OA
ATOM     45  H   SGN d 505     -20.310  46.791 177.585  0.00  0.00     0.231 HD
ENDBRANCH  43  44
BRANCH  43  46
ATOM     46  O1S SGN d 505     -20.970  49.799 177.701  0.00  0.00    -0.296 OA
ATOM     47  H   SGN d 505     -21.363  49.498 178.535  0.00  0.00     0.231 HD
ENDBRANCH  43  46
BRANCH  43  48
ATOM     48  O2S SGN d 505     -21.067  48.194 175.914  0.00  0.00    -0.296 OA
ATOM     49  H   SGN d 505     -21.588  47.420 176.180  0.00  0.00     0.231 HD
ENDBRANCH  43  48
ENDBRANCH  41  43
ENDBRANCH  13  41
ENDBRANCH   7   8
ENDBRANCH   2   7
BRANCH   1  50
ATOM     50  O3  IDS d 504     -13.470  49.310 176.248  0.00  0.00    -0.390 OA
ATOM     51  H   IDS d 504     -13.041  49.747 175.495  0.00  0.00     0.210 HD
ENDBRANCH   1  50
BRANCH   6  52
ATOM     52  C6  IDS d 504     -14.835  51.294 172.718  0.00  0.00     0.206 C 
ATOM     53  O62 IDS d 504     -15.086  51.079 171.530  0.00  0.00    -0.646 OA
ATOM     54  O61 IDS d 504     -14.722  52.459 173.079  0.00  0.00    -0.646 OA
ENDBRANCH   6  52
BRANCH   5  55
ATOM     55  O2  IDS d 504     -16.583  47.542 175.389  0.00  0.00    -0.244 OA
BRANCH  55  56
ATOM     56  S   IDS d 504     -17.259  46.352 176.093  0.00  0.00     0.252 S 
ATOM     57  O2S IDS d 504     -18.573  46.208 175.538  0.00  0.00    -0.572 OA
ATOM     58  O3S IDS d 504     -16.383  45.270 175.837  0.00  0.00    -0.572 OA
ATOM     59  O1S IDS d 504     -17.308  46.678 177.472  0.00  0.00    -0.572 OA
ENDBRANCH  55  56
ENDBRANCH   5  55
BRANCH   3  60
ATOM     60  O4  SGN d 503     -13.364  47.549 173.847  0.00  0.00    -0.348 OA
BRANCH  60  61
ATOM     61  C4  SGN d 503     -12.938  46.753 172.790  0.00  0.00     0.186 C 
ATOM     62  C5  SGN d 503     -11.870  45.774 173.308  0.00  0.00     0.181 C 
ATOM     63  O5  SGN d 503     -11.332  45.023 172.266  0.00  0.00    -0.349 OA
ATOM     64  C1  SGN d 503     -10.680  45.803 171.295  0.00  0.00     0.282 C 
ATOM     65  C2  SGN d 503     -11.683  46.780 170.664  0.00  0.00     0.157 C 
ATOM     66  C3  SGN d 503     -12.344  47.657 171.712  0.00  0.00     0.173 C 
BRANCH  62  67
ATOM     67  C6  SGN d 503     -12.386  44.752 174.285  0.00  0.00     0.227 C 
BRANCH  67  68
ATOM     68  O6  SGN d 503     -12.964  45.451 175.366  0.00  0.00    -0.254 OA
BRANCH  68  69
ATOM     69  S2  SGN d 503     -12.280  45.731 176.730  0.00  0.00     0.251 S 
ATOM     70  O6S SGN d 503     -11.338  44.688 176.854  0.00  0.00    -0.572 OA
ATOM     71  O4S SGN d 503     -11.612  46.986 176.646  0.00  0.00    -0.572 OA
ATOM     72  O5S SGN d 503     -13.331  45.740 177.743  0.00  0.00    -0.572 OA
ENDBRANCH  68  69
ENDBRANCH  67  68
ENDBRANCH  62  67
BRANCH  64  73
ATOM     73  O4  IDS d 502      -9.585  46.489 171.838  0.00  0.00    -0.348 OA
BRANCH  73  74
ATOM     74  C4  IDS d 502      -8.510  45.672 172.221  0.00  0.00     0.195 C 
ATOM     75  C3  IDS d 502      -7.641  45.350 170.989  0.00  0.00     0.185 C 
ATOM     76  C2  IDS d 502      -6.890  46.594 170.508  0.00  0.00     0.231 C 
ATOM     77  C1  IDS d 502      -6.194  47.318 171.656  0.00  0.00     0.291 C 
ATOM     78  O5  IDS d 502      -7.079  47.556 172.722  0.00  0.00    -0.340 OA
ATOM     79  C5  IDS d 502      -7.671  46.396 173.271  0.00  0.00     0.257 C 
BRANCH  75  80
ATOM     80  O3  IDS d 502      -6.685  44.370 171.345  0.00  0.00    -0.390 OA
ATOM     81  H   IDS d 502      -6.295  44.596 172.204  0.00  0.00     0.210 HD
ENDBRANCH  75  80
BRANCH  76  82
ATOM     82  O2  IDS d 502      -7.839  47.467 169.956  0.00  0.00    -0.244 OA
BRANCH  82  83
ATOM     83  S   IDS d 502      -7.883  48.036 168.500  0.00  0.00     0.252 S 
ATOM     84  O3S IDS d 502      -8.569  47.030 167.732  0.00  0.00    -0.572 OA
ATOM     85  O2S IDS d 502      -6.506  48.229 168.109  0.00  0.00    -0.572 OA
ATOM     86  O1S IDS d 502      -8.615  49.272 168.547  0.00  0.00    -0.572 OA
ENDBRANCH  82  83
ENDBRANCH  76  82
BRANCH  77  87
ATOM     87  O1  IDS d 502      -5.082  46.552 172.039  0.00  0.00    -0.368 OA
ATOM     88  H   IDS d 502      -5.237  46.176 172.920  0.00  0.00     0.212 HD
ENDBRANCH  77  87
BRANCH  79  89
ATOM     89  C6  IDS d 502      -8.425  46.731 174.550  0.00  0.00     0.206 C 
ATOM     90  O61 IDS d 502      -8.874  45.863 175.259  0.00  0.00    -0.646 OA
ATOM     91  O62 IDS d 502      -8.591  47.884 174.896  0.00  0.00    -0.646 OA
ENDBRANCH  79  89
ENDBRANCH  73  74
ENDBRANCH  64  73
BRANCH  65  92
ATOM     92  N   SGN d 503     -11.038  47.578 169.637  0.00  0.00    -0.210 NA
ATOM     93  H   SGN d 503     -10.334  46.991 169.190  0.00  0.00     0.140 HD
BRANCH  92  94
ATOM     94  S1  SGN d 503     -11.978  48.192 168.458  0.00  0.00     0.156 S 
BRANCH  94  95
ATOM     95  O2S SGN d 503     -13.156  47.337 168.323  0.00  0.00    -0.296 OA
ATOM     96  H   SGN d 503     -13.593  47.251 169.185  0.00  0.00     0.231 HD
ENDBRANCH  94  95
BRANCH  94  97
ATOM     97  O1S SGN d 503     -11.167  48.195 167.255  0.00  0.00    -0.296 OA
ATOM     98  H   SGN d 503     -11.504  48.866 166.641  0.00  0.00     0.231 HD
ENDBRANCH  94  97
BRANCH  94  99
ATOM     99  O3S SGN d 503     -12.273  49.525 168.930  0.00  0.00    -0.296 OA
ATOM    100  H   SGN d 503     -13.195  49.745 168.722  0.00  0.00     0.231 HD
ENDBRANCH  94  99
ENDBRANCH  92  94
ENDBRANCH  65  92
BRANCH  66 101
ATOM    101  O3  SGN d 503     -13.398  48.396 171.126  0.00  0.00    -0.391 OA
ATOM    102  H   SGN d 503     -14.092  48.548 171.786  0.00  0.00     0.210 HD
ENDBRANCH  66 101
ENDBRANCH  60  61
ENDBRANCH   3  60
TORSDOF 40
ENDMDL
MODEL 9
REMARK VINA RESULT:      -4.4      2.461     12.519
REMARK WARNING: 32 MAX_TORS EXCEEDED!!!
REMARK  40 active torsions:
REMARK  status: ('A' for Active; 'I' for Inactive)
REMARK    1 I    between atoms: C6_1  and  C5_8 
REMARK    2 I    between atoms: C6_1  and  O6_57 
REMARK    3 I    between atoms: O4_2  and  C4_49 
REMARK    4 I    between atoms: O6_3  and  C6_7 
REMARK    5 I    between atoms: O6_3  and  S2_58 
REMARK    6 I    between atoms: S_4  and  O2_6 
REMARK    7 I    between atoms: O3_5  and  C3_81 
REMARK    8 I    between atoms: O2_6  and  C2_11 
REMARK    9 I    between atoms: C6_7  and  C5_54 
REMARK   10 I    between atoms: O4_9  and  C4_32 
REMARK   11 I    between atoms: O4_9  and  C1_39 
REMARK   12 I    between atoms: O3_12  and  C3_18 
REMARK   13 I    between atoms: N_13  and  C2_52 
REMARK   14 I    between atoms: N_13  and  S1_45 
REMARK   15 I    between atoms: O3_17  and  C3_83 
REMARK   16 I    between atoms: C4_20  and  O4_44 
REMARK   17 I    between atoms: N_21  and  C2_66 
REMARK   18 I    between atoms: N_21  and  S1_53 
REMARK   19 I    between atoms: O3_22  and  C3_65 
REMARK   20 I    between atoms: C4_23  and  O4_74 
REMARK   21 I    between atoms: C1_25  and  O1_72 
REMARK   22 I    between atoms: C2_28  and  O2_69 
REMARK   23 I    between atoms: C4_33  and  O4_61 
REMARK   24 I    between atoms: O2S_34  and  S1_45 
REMARK   25 I    between atoms: C6_37  and  C5_47 
REMARK   26 I    between atoms: O2_38  and  C2_77 
REMARK   27 I    between atoms: O2_38  and  S_50 
REMARK   28 I    between atoms: O3S_40  and  S1_53 
REMARK   29 I    between atoms: O1S_42  and  S1_45 
REMARK   30 I    between atoms: O1S_43  and  S1_53 
REMARK   31 I    between atoms: O4_44  and  C1_46 
REMARK   32 I    between atoms: S1_45  and  O3S_60 
REMARK   33 I    between atoms: C6_48  and  C5_84 
REMARK   34 I    between atoms: C6_51  and  C5_87 
REMARK   35 I    between atoms: S1_53  and  O2S_55 
REMARK   36 I    between atoms: C1_56  and  O4_74 
REMARK   37 I    between atoms: O6_57  and  S2_82 
REMARK   38 I    between atoms: O4_61  and  C1_70 
REMARK   39 I    between atoms: C3_63  and  O3_79 
REMARK   40 I    between atoms: O2_69  and  S_76 
ROOT
ATOM      1  C3  IDS d 504     -15.090  48.987 176.066  0.00  0.00     0.185 C 
ATOM      2  C4  IDS d 504     -15.426  50.203 175.217  0.00  0.00     0.195 C 
ATOM      3  C1  IDS d 504     -14.929  47.654 173.874  0.00  0.00     0.294 C 
ATOM      4  O5  IDS d 504     -15.283  48.874 173.214  0.00  0.00    -0.340 OA
ATOM      5  C2  IDS d 504     -15.409  47.640 175.311  0.00  0.00     0.231 C 
ATOM      6  C5  IDS d 504     -14.787  50.036 173.839  0.00  0.00     0.257 C 
ENDROOT
BRANCH   2   7
ATOM      7  O4  IDS d 504     -16.836  50.313 175.092  0.00  0.00    -0.348 OA
BRANCH   7   8
ATOM      8  C1  SGN d 505     -17.457  50.916 176.194  0.00  0.00     0.282 C 
ATOM      9  O5  SGN d 505     -17.382  52.310 176.095  0.00  0.00    -0.349 OA
ATOM     10  C5  SGN d 505     -18.078  52.834 175.006  0.00  0.00     0.181 C 
ATOM     11  C4  SGN d 505     -19.543  52.581 175.155  0.00  0.00     0.186 C 
ATOM     12  C3  SGN d 505     -19.734  51.037 175.129  0.00  0.00     0.173 C 
ATOM     13  C2  SGN d 505     -18.909  50.496 176.314  0.00  0.00     0.157 C 
BRANCH  10  14
ATOM     14  C6  SGN d 505     -17.743  54.289 174.955  0.00  0.00     0.227 C 
BRANCH  14  15
ATOM     15  O6  SGN d 505     -16.681  54.448 175.832  0.00  0.00    -0.254 OA
BRANCH  15  16
ATOM     16  S2  SGN d 505     -15.994  55.749 176.221  0.00  0.00     0.251 S 
ATOM     17  O5S SGN d 505     -15.547  56.310 174.970  0.00  0.00    -0.572 OA
ATOM     18  O4S SGN d 505     -14.929  55.349 177.113  0.00  0.00    -0.572 OA
ATOM     19  O6S SGN d 505     -16.996  56.577 176.878  0.00  0.00    -0.572 OA
ENDBRANCH  15  16
ENDBRANCH  14  15
ENDBRANCH  10  14
BRANCH  11  20
ATOM     20  O4  SGN d 505     -20.165  53.289 174.102  0.00  0.00    -0.348 OA
BRANCH  20  21
ATOM     21  C1  IDS d 506     -21.267  54.111 174.277  0.00  0.00     0.294 C 
ATOM     22  C2  IDS d 506     -21.711  54.645 172.907  0.00  0.00     0.231 C 
ATOM     23  C3  IDS d 506     -22.712  55.830 173.004  0.00  0.00     0.185 C 
ATOM     24  C4  IDS d 506     -22.413  56.803 174.165  0.00  0.00     0.189 C 
ATOM     25  C5  IDS d 506     -21.937  56.038 175.404  0.00  0.00     0.256 C 
ATOM     26  O5  IDS d 506     -20.878  55.202 175.072  0.00  0.00    -0.340 OA
BRANCH  22  27
ATOM     27  O2  IDS d 506     -20.591  55.114 172.182  0.00  0.00    -0.244 OA
BRANCH  27  28
ATOM     28  S   IDS d 506     -19.808  54.390 171.004  0.00  0.00     0.252 S 
ATOM     29  O1S IDS d 506     -19.689  55.376 169.975  0.00  0.00    -0.572 OA
ATOM     30  O2S IDS d 506     -18.518  54.001 171.499  0.00  0.00    -0.572 OA
ATOM     31  O3S IDS d 506     -20.636  53.266 170.623  0.00  0.00    -0.572 OA
ENDBRANCH  27  28
ENDBRANCH  22  27
BRANCH  23  32
ATOM     32  O3  IDS d 506     -24.023  55.301 173.182  0.00  0.00    -0.390 OA
ATOM     33  H   IDS d 506     -24.009  54.342 173.032  0.00  0.00     0.210 HD
ENDBRANCH  23  32
BRANCH  24  34
ATOM     34  O4  IDS d 506     -21.399  57.677 173.727  0.00  0.00    -0.390 OA
ATOM     35  H   IDS d 506     -20.599  57.168 173.521  0.00  0.00     0.210 HD
ENDBRANCH  24  34
BRANCH  25  36
ATOM     36  C6  IDS d 506     -21.559  56.873 176.614  0.00  0.00     0.206 C 
ATOM     37  O62 IDS d 506     -22.047  56.676 177.713  0.00  0.00    -0.646 OA
ATOM     38  O61 IDS d 506     -20.730  57.766 176.505  0.00  0.00    -0.646 OA
ENDBRANCH  25  36
ENDBRANCH  20  21
ENDBRANCH  11  20
BRANCH  12  39
ATOM     39  O3  SGN d 505     -21.099  50.699 175.338  0.00  0.00    -0.391 OA
ATOM     40  H   SGN d 505     -21.579  50.757 174.497  0.00  0.00     0.210 HD
ENDBRANCH  12  39
BRANCH  13  41
ATOM     41  N   SGN d 505     -18.980  49.031 176.520  0.00  0.00    -0.210 NA
ATOM     42  H   SGN d 505     -18.232  48.776 177.164  0.00  0.00     0.140 HD
BRANCH  41  43
ATOM     43  S1  SGN d 505     -20.407  48.404 177.135  0.00  0.00     0.156 S 
BRANCH  43  44
ATOM     44  O3S SGN d 505     -21.010  49.429 177.909  0.00  0.00    -0.296 OA
ATOM     45  H   SGN d 505     -20.417  50.195 177.950  0.00  0.00     0.231 HD
ENDBRANCH  43  44
BRANCH  43  46
ATOM     46  O1S SGN d 505     -21.222  47.988 176.013  0.00  0.00    -0.296 OA
ATOM     47  H   SGN d 505     -21.311  48.724 175.388  0.00  0.00     0.231 HD
ENDBRANCH  43  46
BRANCH  43  48
ATOM     48  O2S SGN d 505     -19.999  47.292 177.961  0.00  0.00    -0.296 OA
ATOM     49  H   SGN d 505     -20.267  47.455 178.879  0.00  0.00     0.231 HD
ENDBRANCH  43  48
ENDBRANCH  41  43
ENDBRANCH  13  41
ENDBRANCH   7   8
ENDBRANCH   2   7
BRANCH   1  50
ATOM     50  O3  IDS d 504     -13.699  49.052 176.358  0.00  0.00    -0.390 OA
ATOM     51  H   IDS d 504     -13.448  48.293 176.907  0.00  0.00     0.210 HD
ENDBRANCH   1  50
BRANCH   6  52
ATOM     52  C6  IDS d 504     -14.926  51.250 172.905  0.00  0.00     0.206 C 
ATOM     53  O62 IDS d 504     -14.978  52.397 173.354  0.00  0.00    -0.646 OA
ATOM     54  O61 IDS d 504     -15.007  51.104 171.692  0.00  0.00    -0.646 OA
ENDBRANCH   6  52
BRANCH   5  55
ATOM     55  O2  IDS d 504     -16.813  47.388 175.312  0.00  0.00    -0.244 OA
BRANCH  55  56
ATOM     56  S   IDS d 504     -17.511  46.072 175.701  0.00  0.00     0.252 S 
ATOM     57  O2S IDS d 504     -16.777  44.997 175.099  0.00  0.00    -0.572 OA
ATOM     58  O3S IDS d 504     -17.489  46.088 177.116  0.00  0.00    -0.572 OA
ATOM     59  O1S IDS d 504     -18.831  46.153 175.191  0.00  0.00    -0.572 OA
ENDBRANCH  55  56
ENDBRANCH   5  55
BRANCH   3  60
ATOM     60  O4  SGN d 503     -13.549  47.424 173.868  0.00  0.00    -0.348 OA
BRANCH  60  61
ATOM     61  C4  SGN d 503     -13.105  46.669 172.789  0.00  0.00     0.186 C 
ATOM     62  C5  SGN d 503     -12.063  45.655 173.291  0.00  0.00     0.181 C 
ATOM     63  O5  SGN d 503     -11.506  44.942 172.230  0.00  0.00    -0.349 OA
ATOM     64  C1  SGN d 503     -10.821  45.755 171.310  0.00  0.00     0.282 C 
ATOM     65  C2  SGN d 503     -11.796  46.771 170.698  0.00  0.00     0.157 C 
ATOM     66  C3  SGN d 503     -12.473  47.610 171.766  0.00  0.00     0.173 C 
BRANCH  62  67
ATOM     67  C6  SGN d 503     -12.615  44.598 174.209  0.00  0.00     0.227 C 
BRANCH  67  68
ATOM     68  O6  SGN d 503     -11.921  44.696 175.435  0.00  0.00    -0.254 OA
BRANCH  68  69
ATOM     69  S2  SGN d 503     -12.497  45.275 176.754  0.00  0.00     0.251 S 
ATOM     70  O6S SGN d 503     -11.827  44.548 177.760  0.00  0.00    -0.572 OA
ATOM     71  O4S SGN d 503     -12.144  46.653 176.829  0.00  0.00    -0.572 OA
ATOM     72  O5S SGN d 503     -13.943  45.084 176.710  0.00  0.00    -0.572 OA
ENDBRANCH  68  69
ENDBRANCH  67  68
ENDBRANCH  62  67
BRANCH  64  73
ATOM     73  O4  IDS d 502      -9.733  46.403 171.910  0.00  0.00    -0.348 OA
BRANCH  73  74
ATOM     74  C4  IDS d 502      -8.684  45.554 172.299  0.00  0.00     0.195 C 
ATOM     75  C3  IDS d 502      -7.849  45.165 171.065  0.00  0.00     0.185 C 
ATOM     76  C2  IDS d 502      -7.057  46.365 170.538  0.00  0.00     0.231 C 
ATOM     77  C1  IDS d 502      -6.314  47.091 171.655  0.00  0.00     0.291 C 
ATOM     78  O5  IDS d 502      -7.173  47.393 172.727  0.00  0.00    -0.340 OA
ATOM     79  C5  IDS d 502      -7.801  46.272 173.317  0.00  0.00     0.257 C 
BRANCH  75  80
ATOM     80  O3  IDS d 502      -6.927  44.158 171.433  0.00  0.00    -0.390 OA
ATOM     81  H   IDS d 502      -6.024  44.465 171.252  0.00  0.00     0.210 HD
ENDBRANCH  75  80
BRANCH  76  82
ATOM     82  O2  IDS d 502      -7.979  47.259 169.976  0.00  0.00    -0.244 OA
BRANCH  82  83
ATOM     83  S   IDS d 502      -7.952  47.890 168.545  0.00  0.00     0.252 S 
ATOM     84  O3S IDS d 502      -6.556  47.947 168.195  0.00  0.00    -0.572 OA
ATOM     85  O2S IDS d 502      -8.575  49.187 168.673  0.00  0.00    -0.572 OA
ATOM     86  O1S IDS d 502      -8.691  47.013 167.679  0.00  0.00    -0.572 OA
ENDBRANCH  82  83
ENDBRANCH  76  82
BRANCH  77  87
ATOM     87  O1  IDS d 502      -5.228  46.292 172.043  0.00  0.00    -0.368 OA
ATOM     88  H   IDS d 502      -4.565  46.284 171.335  0.00  0.00     0.212 HD
ENDBRANCH  77  87
BRANCH  79  89
ATOM     89  C6  IDS d 502      -8.521  46.671 174.597  0.00  0.00     0.206 C 
ATOM     90  O61 IDS d 502      -8.639  47.830 174.915  0.00  0.00    -0.646 OA
ATOM     91  O62 IDS d 502      -9.002  45.831 175.333  0.00  0.00    -0.646 OA
ENDBRANCH  79  89
ENDBRANCH  73  74
ENDBRANCH  64  73
BRANCH  65  92
ATOM     92  N   SGN d 503     -11.116  47.604 169.722  0.00  0.00    -0.210 NA
ATOM     93  H   SGN d 503     -10.377  47.041 169.302  0.00  0.00     0.140 HD
BRANCH  92  94
ATOM     94  S1  SGN d 503     -12.006  48.223 168.509  0.00  0.00     0.156 S 
BRANCH  94  95
ATOM     95  O2S SGN d 503     -11.156  48.324 167.324  0.00  0.00    -0.296 OA
ATOM     96  H   SGN d 503     -10.253  48.050 167.550  0.00  0.00     0.231 HD
ENDBRANCH  94  95
BRANCH  94  97
ATOM     97  O1S SGN d 503     -12.463  49.523 168.964  0.00  0.00    -0.296 OA
ATOM     98  H   SGN d 503     -11.758  50.176 168.834  0.00  0.00     0.231 HD
ENDBRANCH  94  97
BRANCH  94  99
ATOM     99  O3S SGN d 503     -13.087  47.273 168.373  0.00  0.00    -0.296 OA
ATOM    100  H   SGN d 503     -13.848  47.573 168.895  0.00  0.00     0.231 HD
ENDBRANCH  94  99
ENDBRANCH  92  94
ENDBRANCH  65  92
BRANCH  66 101
ATOM    101  O3  SGN d 503     -13.504  48.387 171.187  0.00  0.00    -0.391 OA
ATOM    102  H   SGN d 503     -14.253  48.440 171.801  0.00  0.00     0.210 HD
ENDBRANCH  66 101
ENDBRANCH  60  61
ENDBRANCH   3  60
TORSDOF 40
ENDMDL
MODEL 10
REMARK VINA RESULT:      -3.9      1.159      1.979
REMARK WARNING: 32 MAX_TORS EXCEEDED!!!
REMARK  40 active torsions:
REMARK  status: ('A' for Active; 'I' for Inactive)
REMARK    1 I    between atoms: C6_1  and  C5_8 
REMARK    2 I    between atoms: C6_1  and  O6_57 
REMARK    3 I    between atoms: O4_2  and  C4_49 
REMARK    4 I    between atoms: O6_3  and  C6_7 
REMARK    5 I    between atoms: O6_3  and  S2_58 
REMARK    6 I    between atoms: S_4  and  O2_6 
REMARK    7 I    between atoms: O3_5  and  C3_81 
REMARK    8 I    between atoms: O2_6  and  C2_11 
REMARK    9 I    between atoms: C6_7  and  C5_54 
REMARK   10 I    between atoms: O4_9  and  C4_32 
REMARK   11 I    between atoms: O4_9  and  C1_39 
REMARK   12 I    between atoms: O3_12  and  C3_18 
REMARK   13 I    between atoms: N_13  and  C2_52 
REMARK   14 I    between atoms: N_13  and  S1_45 
REMARK   15 I    between atoms: O3_17  and  C3_83 
REMARK   16 I    between atoms: C4_20  and  O4_44 
REMARK   17 I    between atoms: N_21  and  C2_66 
REMARK   18 I    between atoms: N_21  and  S1_53 
REMARK   19 I    between atoms: O3_22  and  C3_65 
REMARK   20 I    between atoms: C4_23  and  O4_74 
REMARK   21 I    between atoms: C1_25  and  O1_72 
REMARK   22 I    between atoms: C2_28  and  O2_69 
REMARK   23 I    between atoms: C4_33  and  O4_61 
REMARK   24 I    between atoms: O2S_34  and  S1_45 
REMARK   25 I    between atoms: C6_37  and  C5_47 
REMARK   26 I    between atoms: O2_38  and  C2_77 
REMARK   27 I    between atoms: O2_38  and  S_50 
REMARK   28 I    between atoms: O3S_40  and  S1_53 
REMARK   29 I    between atoms: O1S_42  and  S1_45 
REMARK   30 I    between atoms: O1S_43  and  S1_53 
REMARK   31 I    between atoms: O4_44  and  C1_46 
REMARK   32 I    between atoms: S1_45  and  O3S_60 
REMARK   33 I    between atoms: C6_48  and  C5_84 
REMARK   34 I    between atoms: C6_51  and  C5_87 
REMARK   35 I    between atoms: S1_53  and  O2S_55 
REMARK   36 I    between atoms: C1_56  and  O4_74 
REMARK   37 I    between atoms: O6_57  and  S2_82 
REMARK   38 I    between atoms: O4_61  and  C1_70 
REMARK   39 I    between atoms: C3_63  and  O3_79 
REMARK   40 I    between atoms: O2_69  and  S_76 
ROOT
ATOM      1  C3  IDS d 504     -16.813  49.823 175.327  0.00  0.00     0.185 C 
ATOM      2  C4  IDS d 504     -16.180  49.395 174.012  0.00  0.00     0.195 C 
ATOM      3  C1  IDS d 504     -16.571  52.249 174.509  0.00  0.00     0.294 C 
ATOM      4  O5  IDS d 504     -15.965  51.695 173.336  0.00  0.00    -0.340 OA
ATOM      5  C2  IDS d 504     -16.446  51.313 175.694  0.00  0.00     0.231 C 
ATOM      6  C5  IDS d 504     -16.489  50.445 172.948  0.00  0.00     0.257 C 
ENDROOT
BRANCH   2   7
ATOM      7  O4  IDS d 504     -14.776  49.272 174.185  0.00  0.00    -0.348 OA
BRANCH   7   8
ATOM      8  C1  SGN d 505     -14.363  47.992 174.581  0.00  0.00     0.282 C 
ATOM      9  O5  SGN d 505     -14.285  47.140 173.473  0.00  0.00    -0.349 OA
ATOM     10  C5  SGN d 505     -13.318  47.517 172.541  0.00  0.00     0.181 C 
ATOM     11  C4  SGN d 505     -11.953  47.423 173.141  0.00  0.00     0.186 C 
ATOM     12  C3  SGN d 505     -11.905  48.455 174.305  0.00  0.00     0.173 C 
ATOM     13  C2  SGN d 505     -13.019  48.032 175.282  0.00  0.00     0.157 C 
BRANCH  10  14
ATOM     14  C6  SGN d 505     -13.497  46.616 171.363  0.00  0.00     0.227 C 
BRANCH  14  15
ATOM     15  O6  SGN d 505     -13.934  47.442 170.338  0.00  0.00    -0.254 OA
BRANCH  15  16
ATOM     16  S2  SGN d 505     -14.592  47.020 169.032  0.00  0.00     0.251 S 
ATOM     17  O5S SGN d 505     -15.922  46.611 169.412  0.00  0.00    -0.572 OA
ATOM     18  O4S SGN d 505     -13.758  45.952 168.529  0.00  0.00    -0.572 OA
ATOM     19  O6S SGN d 505     -14.595  48.188 168.162  0.00  0.00    -0.572 OA
ENDBRANCH  15  16
ENDBRANCH  14  15
ENDBRANCH  10  14
BRANCH  11  20
ATOM     20  O4  SGN d 505     -11.049  47.658 172.081  0.00  0.00    -0.348 OA
BRANCH  20  21
ATOM     21  C1  IDS d 506      -9.869  46.951 171.908  0.00  0.00     0.294 C 
ATOM     22  C2  IDS d 506      -9.228  47.372 170.578  0.00  0.00     0.231 C 
ATOM     23  C3  IDS d 506      -8.093  46.418 170.113  0.00  0.00     0.185 C 
ATOM     24  C4  IDS d 506      -8.371  44.930 170.411  0.00  0.00     0.189 C 
ATOM     25  C5  IDS d 506      -9.062  44.768 171.769  0.00  0.00     0.256 C 
ATOM     26  O5  IDS d 506     -10.186  45.584 171.833  0.00  0.00    -0.340 OA
BRANCH  22  27
ATOM     27  O2  IDS d 506     -10.200  47.383 169.551  0.00  0.00    -0.244 OA
BRANCH  27  28
ATOM     28  S   IDS d 506     -10.587  48.575 168.575  0.00  0.00     0.252 S 
ATOM     29  O1S IDS d 506     -11.521  49.370 169.311  0.00  0.00    -0.572 OA
ATOM     30  O2S IDS d 506      -9.395  49.318 168.283  0.00  0.00    -0.572 OA
ATOM     31  O3S IDS d 506     -11.169  47.947 167.408  0.00  0.00    -0.572 OA
ENDBRANCH  27  28
ENDBRANCH  22  27
BRANCH  23  32
ATOM     32  O3  IDS d 506      -6.887  46.795 170.773  0.00  0.00    -0.390 OA
ATOM     33  H   IDS d 506      -6.157  46.805 170.133  0.00  0.00     0.210 HD
ENDBRANCH  23  32
BRANCH  24  34
ATOM     34  O4  IDS d 506      -9.212  44.449 169.389  0.00  0.00    -0.390 OA
ATOM     35  H   IDS d 506      -9.725  45.184 169.019  0.00  0.00     0.210 HD
ENDBRANCH  24  34
BRANCH  25  36
ATOM     36  C6  IDS d 506      -9.441  43.356 172.175  0.00  0.00     0.206 C 
ATOM     37  O62 IDS d 506     -10.411  42.787 171.705  0.00  0.00    -0.646 OA
ATOM     38  O61 IDS d 506      -8.756  42.748 172.985  0.00  0.00    -0.646 OA
ENDBRANCH  25  36
ENDBRANCH  20  21
ENDBRANCH  11  20
BRANCH  12  39
ATOM     39  O3  SGN d 505     -10.658  48.384 174.984  0.00  0.00    -0.391 OA
ATOM     40  H   SGN d 505      -9.986  48.867 174.478  0.00  0.00     0.210 HD
ENDBRANCH  12  39
BRANCH  13  41
ATOM     41  N   SGN d 505     -13.132  48.854 176.509  0.00  0.00    -0.210 NA
ATOM     42  H   SGN d 505     -13.777  49.618 176.307  0.00  0.00     0.140 HD
BRANCH  41  43
ATOM     43  S1  SGN d 505     -13.674  48.095 177.902  0.00  0.00     0.156 S 
BRANCH  43  44
ATOM     44  O3S SGN d 505     -13.171  46.768 177.873  0.00  0.00    -0.296 OA
ATOM     45  H   SGN d 505     -13.821  46.185 177.450  0.00  0.00     0.231 HD
ENDBRANCH  43  44
BRANCH  43  46
ATOM     46  O1S SGN d 505     -13.191  48.859 179.033  0.00  0.00    -0.296 OA
ATOM     47  H   SGN d 505     -13.647  49.714 179.063  0.00  0.00     0.231 HD
ENDBRANCH  43  46
BRANCH  43  48
ATOM     48  O2S SGN d 505     -15.115  48.114 177.799  0.00  0.00    -0.296 OA
ATOM     49  H   SGN d 505     -15.375  47.980 176.874  0.00  0.00     0.231 HD
ENDBRANCH  43  48
ENDBRANCH  41  43
ENDBRANCH  13  41
ENDBRANCH   7   8
ENDBRANCH   2   7
BRANCH   1  50
ATOM     50  O3  IDS d 504     -18.221  49.704 175.172  0.00  0.00    -0.390 OA
ATOM     51  H   IDS d 504     -18.572  50.516 174.773  0.00  0.00     0.210 HD
ENDBRANCH   1  50
BRANCH   6  52
ATOM     52  C6  IDS d 504     -16.027  50.088 171.525  0.00  0.00     0.206 C 
ATOM     53  O62 IDS d 504     -14.986  50.554 171.057  0.00  0.00    -0.646 OA
ATOM     54  O61 IDS d 504     -16.693  49.345 170.815  0.00  0.00    -0.646 OA
ENDBRANCH   6  52
BRANCH   5  55
ATOM     55  O2  IDS d 504     -15.109  51.390 176.187  0.00  0.00    -0.244 OA
BRANCH  55  56
ATOM     56  S   IDS d 504     -14.670  51.866 177.583  0.00  0.00     0.252 S 
ATOM     57  O2S IDS d 504     -15.390  51.092 178.551  0.00  0.00    -0.572 OA
ATOM     58  O3S IDS d 504     -13.270  51.661 177.580  0.00  0.00    -0.572 OA
ATOM     59  O1S IDS d 504     -15.004  53.241 177.661  0.00  0.00    -0.572 OA
ENDBRANCH  55  56
ENDBRANCH   5  55
BRANCH   3  60
ATOM     60  O4  SGN d 503     -17.926  52.544 174.323  0.00  0.00    -0.348 OA
BRANCH  60  61
ATOM     61  C4  SGN d 503     -18.180  53.378 173.240  0.00  0.00     0.186 C 
ATOM     62  C5  SGN d 503     -17.966  54.837 173.680  0.00  0.00     0.181 C 
ATOM     63  O5  SGN d 503     -18.310  55.722 172.661  0.00  0.00    -0.349 OA
ATOM     64  C1  SGN d 503     -19.663  55.642 172.285  0.00  0.00     0.282 C 
ATOM     65  C2  SGN d 503     -19.969  54.229 171.767  0.00  0.00     0.157 C 
ATOM     66  C3  SGN d 503     -19.627  53.169 172.798  0.00  0.00     0.173 C 
BRANCH  62  67
ATOM     67  C6  SGN d 503     -16.540  55.182 174.016  0.00  0.00     0.227 C 
BRANCH  67  68
ATOM     68  O6  SGN d 503     -16.499  55.537 175.381  0.00  0.00    -0.254 OA
BRANCH  68  69
ATOM     69  S2  SGN d 503     -15.496  56.529 176.026  0.00  0.00     0.251 S 
ATOM     70  O6S SGN d 503     -15.789  56.455 177.404  0.00  0.00    -0.572 OA
ATOM     71  O4S SGN d 503     -14.177  56.055 175.780  0.00  0.00    -0.572 OA
ATOM     72  O5S SGN d 503     -15.730  57.833 175.413  0.00  0.00    -0.572 OA
ENDBRANCH  68  69
ENDBRANCH  67  68
ENDBRANCH  62  67
BRANCH  64  73
ATOM     73  O4  IDS d 502     -20.511  55.980 173.349  0.00  0.00    -0.348 OA
BRANCH  73  74
ATOM     74  C4  IDS d 502     -20.601  57.356 173.615  0.00  0.00     0.195 C 
ATOM     75  C3  IDS d 502     -21.704  57.981 172.739  0.00  0.00     0.185 C 
ATOM     76  C2  IDS d 502     -23.092  57.516 173.192  0.00  0.00     0.231 C 
ATOM     77  C1  IDS d 502     -23.271  57.647 174.701  0.00  0.00     0.291 C 
ATOM     78  O5  IDS d 502     -22.207  57.046 175.396  0.00  0.00    -0.340 OA
ATOM     79  C5  IDS d 502     -20.929  57.568 175.091  0.00  0.00     0.257 C 
BRANCH  75  80
ATOM     80  O3  IDS d 502     -21.650  59.388 172.865  0.00  0.00    -0.390 OA
ATOM     81  H   IDS d 502     -20.802  59.711 172.523  0.00  0.00     0.210 HD
ENDBRANCH  75  80
BRANCH  76  82
ATOM     82  O2  IDS d 502     -23.207  56.160 172.856  0.00  0.00    -0.244 OA
BRANCH  82  83
ATOM     83  S   IDS d 502     -24.478  55.405 172.344  0.00  0.00     0.252 S 
ATOM     84  O3S IDS d 502     -24.700  55.917 171.017  0.00  0.00    -0.572 OA
ATOM     85  O2S IDS d 502     -25.532  55.728 173.277  0.00  0.00    -0.572 OA
ATOM     86  O1S IDS d 502     -24.166  54.002 172.336  0.00  0.00    -0.572 OA
ENDBRANCH  82  83
ENDBRANCH  76  82
BRANCH  77  87
ATOM     87  O1  IDS d 502     -23.410  59.010 175.002  0.00  0.00    -0.368 OA
ATOM     88  H   IDS d 502     -23.352  59.136 175.963  0.00  0.00     0.212 HD
ENDBRANCH  77  87
BRANCH  79  89
ATOM     89  C6  IDS d 502     -19.881  57.019 176.048  0.00  0.00     0.206 C 
ATOM     90  O61 IDS d 502     -19.992  55.921 176.536  0.00  0.00    -0.646 OA
ATOM     91  O62 IDS d 502     -18.900  57.673 176.344  0.00  0.00    -0.646 OA
ENDBRANCH  79  89
ENDBRANCH  73  74
ENDBRANCH  64  73
BRANCH  65  92
ATOM     92  N   SGN d 503     -21.356  54.131 171.347  0.00  0.00    -0.210 NA
ATOM     93  H   SGN d 503     -21.906  54.724 171.968  0.00  0.00     0.140 HD
BRANCH  92  94
ATOM     94  S1  SGN d 503     -21.712  54.564 169.819  0.00  0.00     0.156 S 
BRANCH  94  95
ATOM     95  O2S SGN d 503     -22.917  53.844 169.410  0.00  0.00    -0.296 OA
ATOM     96  H   SGN d 503     -23.311  53.410 170.183  0.00  0.00     0.231 HD
ENDBRANCH  94  95
BRANCH  94  97
ATOM     97  O1S SGN d 503     -20.560  54.200 169.016  0.00  0.00    -0.296 OA
ATOM     98  H   SGN d 503     -19.947  54.950 168.973  0.00  0.00     0.231 HD
ENDBRANCH  94  97
BRANCH  94  99
ATOM     99  O3S SGN d 503     -21.890  55.996 169.914  0.00  0.00    -0.296 OA
ATOM    100  H   SGN d 503     -22.025  56.364 169.027  0.00  0.00     0.231 HD
ENDBRANCH  94  99
ENDBRANCH  92  94
ENDBRANCH  65  92
BRANCH  66 101
ATOM    101  O3  SGN d 503     -19.729  51.883 172.218  0.00  0.00    -0.391 OA
ATOM    102  H   SGN d 503     -19.593  51.948 171.260  0.00  0.00     0.210 HD
ENDBRANCH  66 101
ENDBRANCH  60  61
ENDBRANCH   3  60
TORSDOF 40
ENDMDL
MODEL 11
REMARK VINA RESULT:      -3.9      1.427      2.141
REMARK WARNING: 32 MAX_TORS EXCEEDED!!!
REMARK  40 active torsions:
REMARK  status: ('A' for Active; 'I' for Inactive)
REMARK    1 I    between atoms: C6_1  and  C5_8 
REMARK    2 I    between atoms: C6_1  and  O6_57 
REMARK    3 I    between atoms: O4_2  and  C4_49 
REMARK    4 I    between atoms: O6_3  and  C6_7 
REMARK    5 I    between atoms: O6_3  and  S2_58 
REMARK    6 I    between atoms: S_4  and  O2_6 
REMARK    7 I    between atoms: O3_5  and  C3_81 
REMARK    8 I    between atoms: O2_6  and  C2_11 
REMARK    9 I    between atoms: C6_7  and  C5_54 
REMARK   10 I    between atoms: O4_9  and  C4_32 
REMARK   11 I    between atoms: O4_9  and  C1_39 
REMARK   12 I    between atoms: O3_12  and  C3_18 
REMARK   13 I    between atoms: N_13  and  C2_52 
REMARK   14 I    between atoms: N_13  and  S1_45 
REMARK   15 I    between atoms: O3_17  and  C3_83 
REMARK   16 I    between atoms: C4_20  and  O4_44 
REMARK   17 I    between atoms: N_21  and  C2_66 
REMARK   18 I    between atoms: N_21  and  S1_53 
REMARK   19 I    between atoms: O3_22  and  C3_65 
REMARK   20 I    between atoms: C4_23  and  O4_74 
REMARK   21 I    between atoms: C1_25  and  O1_72 
REMARK   22 I    between atoms: C2_28  and  O2_69 
REMARK   23 I    between atoms: C4_33  and  O4_61 
REMARK   24 I    between atoms: O2S_34  and  S1_45 
REMARK   25 I    between atoms: C6_37  and  C5_47 
REMARK   26 I    between atoms: O2_38  and  C2_77 
REMARK   27 I    between atoms: O2_38  and  S_50 
REMARK   28 I    between atoms: O3S_40  and  S1_53 
REMARK   29 I    between atoms: O1S_42  and  S1_45 
REMARK   30 I    between atoms: O1S_43  and  S1_53 
REMARK   31 I    between atoms: O4_44  and  C1_46 
REMARK   32 I    between atoms: S1_45  and  O3S_60 
REMARK   33 I    between atoms: C6_48  and  C5_84 
REMARK   34 I    between atoms: C6_51  and  C5_87 
REMARK   35 I    between atoms: S1_53  and  O2S_55 
REMARK   36 I    between atoms: C1_56  and  O4_74 
REMARK   37 I    between atoms: O6_57  and  S2_82 
REMARK   38 I    between atoms: O4_61  and  C1_70 
REMARK   39 I    between atoms: C3_63  and  O3_79 
REMARK   40 I    between atoms: O2_69  and  S_76 
ROOT
ATOM      1  C3  IDS d 504     -16.727  49.656 175.259  0.00  0.00     0.185 C 
ATOM      2  C4  IDS d 504     -16.069  49.209 173.962  0.00  0.00     0.195 C 
ATOM      3  C1  IDS d 504     -16.539  52.064 174.380  0.00  0.00     0.294 C 
ATOM      4  O5  IDS d 504     -15.907  51.496 173.229  0.00  0.00    -0.340 OA
ATOM      5  C2  IDS d 504     -16.402  51.163 175.591  0.00  0.00     0.231 C 
ATOM      6  C5  IDS d 504     -16.394  50.224 172.868  0.00  0.00     0.257 C 
ENDROOT
BRANCH   2   7
ATOM      7  O4  IDS d 504     -14.664  49.128 174.152  0.00  0.00    -0.348 OA
BRANCH   7   8
ATOM      8  C1  SGN d 505     -14.221  47.864 174.567  0.00  0.00     0.282 C 
ATOM      9  O5  SGN d 505     -14.112  47.001 173.470  0.00  0.00    -0.349 OA
ATOM     10  C5  SGN d 505     -13.149  47.392 172.541  0.00  0.00     0.181 C 
ATOM     11  C4  SGN d 505     -11.786  47.341 173.151  0.00  0.00     0.186 C 
ATOM     12  C3  SGN d 505     -11.774  48.389 174.302  0.00  0.00     0.173 C 
ATOM     13  C2  SGN d 505     -12.884  47.949 175.277  0.00  0.00     0.157 C 
BRANCH  10  14
ATOM     14  C6  SGN d 505     -13.296  46.472 171.373  0.00  0.00     0.227 C 
BRANCH  14  15
ATOM     15  O6  SGN d 505     -13.303  45.196 171.914  0.00  0.00    -0.254 OA
BRANCH  15  16
ATOM     16  S2  SGN d 505     -14.027  43.970 171.376  0.00  0.00     0.251 S 
ATOM     17  O5S SGN d 505     -14.256  43.146 172.537  0.00  0.00    -0.572 OA
ATOM     18  O4S SGN d 505     -13.116  43.402 170.408  0.00  0.00    -0.572 OA
ATOM     19  O6S SGN d 505     -15.266  44.441 170.773  0.00  0.00    -0.572 OA
ENDBRANCH  15  16
ENDBRANCH  14  15
ENDBRANCH  10  14
BRANCH  11  20
ATOM     20  O4  SGN d 505     -10.882  47.587 172.094  0.00  0.00    -0.348 OA
BRANCH  20  21
ATOM     21  C1  IDS d 506      -9.665  46.936 171.959  0.00  0.00     0.294 C 
ATOM     22  C2  IDS d 506      -8.933  47.500 170.733  0.00  0.00     0.231 C 
ATOM     23  C3  IDS d 506      -7.727  46.630 170.282  0.00  0.00     0.185 C 
ATOM     24  C4  IDS d 506      -7.972  45.112 170.417  0.00  0.00     0.189 C 
ATOM     25  C5  IDS d 506      -8.766  44.802 171.690  0.00  0.00     0.256 C 
ATOM     26  O5  IDS d 506      -9.922  45.573 171.732  0.00  0.00    -0.340 OA
BRANCH  22  27
ATOM     27  O2  IDS d 506      -9.817  47.579 169.632  0.00  0.00    -0.244 OA
BRANCH  27  28
ATOM     28  S   IDS d 506      -9.533  48.164 168.182  0.00  0.00     0.252 S 
ATOM     29  O1S IDS d 506      -8.672  49.286 168.396  0.00  0.00    -0.572 OA
ATOM     30  O2S IDS d 506      -8.874  47.147 167.411  0.00  0.00    -0.572 OA
ATOM     31  O3S IDS d 506     -10.828  48.532 167.653  0.00  0.00    -0.572 OA
ENDBRANCH  27  28
ENDBRANCH  22  27
BRANCH  23  32
ATOM     32  O3  IDS d 506      -6.595  46.979 171.074  0.00  0.00    -0.390 OA
ATOM     33  H   IDS d 506      -6.039  47.606 170.586  0.00  0.00     0.210 HD
ENDBRANCH  23  32
BRANCH  24  34
ATOM     34  O4  IDS d 506      -8.707  44.705 169.287  0.00  0.00    -0.390 OA
ATOM     35  H   IDS d 506      -8.899  43.756 169.350  0.00  0.00     0.210 HD
ENDBRANCH  24  34
BRANCH  25  36
ATOM     36  C6  IDS d 506      -9.123  43.347 171.930  0.00  0.00     0.206 C 
ATOM     37  O62 IDS d 506      -9.899  42.744 171.209  0.00  0.00    -0.646 OA
ATOM     38  O61 IDS d 506      -8.615  42.738 172.862  0.00  0.00    -0.646 OA
ENDBRANCH  25  36
ENDBRANCH  20  21
ENDBRANCH  11  20
BRANCH  12  39
ATOM     39  O3  SGN d 505     -10.531  48.359 174.990  0.00  0.00    -0.391 OA
ATOM     40  H   SGN d 505     -10.188  47.452 175.001  0.00  0.00     0.210 HD
ENDBRANCH  12  39
BRANCH  13  41
ATOM     41  N   SGN d 505     -13.027  48.783 176.492  0.00  0.00    -0.210 NA
ATOM     42  H   SGN d 505     -13.665  49.546 176.267  0.00  0.00     0.140 HD
BRANCH  41  43
ATOM     43  S1  SGN d 505     -13.606  48.038 177.878  0.00  0.00     0.156 S 
BRANCH  43  44
ATOM     44  O3S SGN d 505     -13.109  46.709 177.872  0.00  0.00    -0.296 OA
ATOM     45  H   SGN d 505     -13.848  46.088 177.783  0.00  0.00     0.231 HD
ENDBRANCH  43  44
BRANCH  43  46
ATOM     46  O1S SGN d 505     -13.146  48.809 179.014  0.00  0.00    -0.296 OA
ATOM     47  H   SGN d 505     -12.309  49.245 178.790  0.00  0.00     0.231 HD
ENDBRANCH  43  46
BRANCH  43  48
ATOM     48  O2S SGN d 505     -15.043  48.063 177.741  0.00  0.00    -0.296 OA
ATOM     49  H   SGN d 505     -15.335  48.969 177.549  0.00  0.00     0.231 HD
ENDBRANCH  43  48
ENDBRANCH  41  43
ENDBRANCH  13  41
ENDBRANCH   7   8
ENDBRANCH   2   7
BRANCH   1  50
ATOM     50  O3  IDS d 504     -18.130  49.495 175.094  0.00  0.00    -0.390 OA
ATOM     51  H   IDS d 504     -18.310  49.113 174.220  0.00  0.00     0.210 HD
ENDBRANCH   1  50
BRANCH   6  52
ATOM     52  C6  IDS d 504     -15.909  49.842 171.459  0.00  0.00     0.206 C 
ATOM     53  O62 IDS d 504     -14.990  50.457 170.914  0.00  0.00    -0.646 OA
ATOM     54  O61 IDS d 504     -16.436  48.928 170.838  0.00  0.00    -0.646 OA
ENDBRANCH   6  52
BRANCH   5  55
ATOM     55  O2  IDS d 504     -15.074  51.288 176.094  0.00  0.00    -0.244 OA
BRANCH  55  56
ATOM     56  S   IDS d 504     -14.662  51.799 177.487  0.00  0.00     0.252 S 
ATOM     57  O2S IDS d 504     -13.244  51.629 177.609  0.00  0.00    -0.572 OA
ATOM     58  O3S IDS d 504     -15.103  53.143 177.494  0.00  0.00    -0.572 OA
ATOM     59  O1S IDS d 504     -15.366  51.006 178.428  0.00  0.00    -0.572 OA
ENDBRANCH  55  56
ENDBRANCH   5  55
BRANCH   3  60
ATOM     60  O4  SGN d 503     -17.899  52.319 174.174  0.00  0.00    -0.348 OA
BRANCH  60  61
ATOM     61  C4  SGN d 503     -18.157  53.215 173.142  0.00  0.00     0.186 C 
ATOM     62  C5  SGN d 503     -17.976  54.647 173.676  0.00  0.00     0.181 C 
ATOM     63  O5  SGN d 503     -18.326  55.589 172.710  0.00  0.00    -0.349 OA
ATOM     64  C1  SGN d 503     -19.672  55.507 172.313  0.00  0.00     0.282 C 
ATOM     65  C2  SGN d 503     -19.944  54.124 171.702  0.00  0.00     0.157 C 
ATOM     66  C3  SGN d 503     -19.594  53.008 172.669  0.00  0.00     0.173 C 
BRANCH  62  67
ATOM     67  C6  SGN d 503     -16.562  54.997 174.052  0.00  0.00     0.227 C 
BRANCH  67  68
ATOM     68  O6  SGN d 503     -16.579  55.462 175.384  0.00  0.00    -0.254 OA
BRANCH  68  69
ATOM     69  S2  SGN d 503     -15.543  56.428 176.016  0.00  0.00     0.251 S 
ATOM     70  O6S SGN d 503     -15.871  57.683 175.461  0.00  0.00    -0.572 OA
ATOM     71  O4S SGN d 503     -15.750  56.447 177.424  0.00  0.00    -0.572 OA
ATOM     72  O5S SGN d 503     -14.218  55.924 175.667  0.00  0.00    -0.572 OA
ENDBRANCH  68  69
ENDBRANCH  67  68
ENDBRANCH  62  67
BRANCH  64  73
ATOM     73  O4  IDS d 502     -20.539  55.761 173.384  0.00  0.00    -0.348 OA
BRANCH  73  74
ATOM     74  C4  IDS d 502     -20.763  57.122 173.650  0.00  0.00     0.195 C 
ATOM     75  C3  IDS d 502     -21.982  57.612 172.845  0.00  0.00     0.185 C 
ATOM     76  C2  IDS d 502     -23.278  57.003 173.388  0.00  0.00     0.231 C 
ATOM     77  C1  IDS d 502     -23.374  57.130 174.905  0.00  0.00     0.291 C 
ATOM     78  O5  IDS d 502     -22.208  56.657 175.532  0.00  0.00    -0.340 OA
ATOM     79  C5  IDS d 502     -21.018  57.313 175.143  0.00  0.00     0.257 C 
BRANCH  75  80
ATOM     80  O3  IDS d 502     -22.075  59.018 172.962  0.00  0.00    -0.390 OA
ATOM     81  H   IDS d 502     -21.186  59.405 172.922  0.00  0.00     0.210 HD
ENDBRANCH  75  80
BRANCH  76  82
ATOM     82  O2  IDS d 502     -23.265  55.638 173.066  0.00  0.00    -0.244 OA
BRANCH  82  83
ATOM     83  S   IDS d 502     -24.450  54.769 172.530  0.00  0.00     0.252 S 
ATOM     84  O3S IDS d 502     -23.890  53.455 172.351  0.00  0.00    -0.572 OA
ATOM     85  O2S IDS d 502     -24.873  55.395 171.299  0.00  0.00    -0.572 OA
ATOM     86  O1S IDS d 502     -25.479  54.787 173.533  0.00  0.00    -0.572 OA
ENDBRANCH  82  83
ENDBRANCH  76  82
BRANCH  77  87
ATOM     87  O1  IDS d 502     -23.643  58.473 175.210  0.00  0.00    -0.368 OA
ATOM     88  H   IDS d 502     -22.865  59.014 175.000  0.00  0.00     0.212 HD
ENDBRANCH  77  87
BRANCH  79  89
ATOM     89  C6  IDS d 502     -19.856  56.893 176.033  0.00  0.00     0.206 C 
ATOM     90  O61 IDS d 502     -18.948  57.649 176.277  0.00  0.00    -0.646 OA
ATOM     91  O62 IDS d 502     -19.816  55.782 176.527  0.00  0.00    -0.646 OA
ENDBRANCH  79  89
ENDBRANCH  73  74
ENDBRANCH  64  73
BRANCH  65  92
ATOM     92  N   SGN d 503     -21.323  54.027 171.259  0.00  0.00    -0.210 NA
ATOM     93  H   SGN d 503     -21.771  54.923 171.452  0.00  0.00     0.140 HD
BRANCH  92  94
ATOM     94  S1  SGN d 503     -21.587  53.680 169.691  0.00  0.00     0.156 S 
BRANCH  94  95
ATOM     95  O2S SGN d 503     -20.621  54.430 168.888  0.00  0.00    -0.296 OA
ATOM     96  H   SGN d 503     -19.924  54.779 169.466  0.00  0.00     0.231 HD
ENDBRANCH  94  95
BRANCH  94  97
ATOM     97  O1S SGN d 503     -22.953  54.080 169.412  0.00  0.00    -0.296 OA
ATOM     98  H   SGN d 503     -23.507  53.901 170.188  0.00  0.00     0.231 HD
ENDBRANCH  94  97
BRANCH  94  99
ATOM     99  O3S SGN d 503     -21.408  52.247 169.633  0.00  0.00    -0.296 OA
ATOM    100  H   SGN d 503     -20.691  51.987 170.233  0.00  0.00     0.231 HD
ENDBRANCH  94  99
ENDBRANCH  92  94
ENDBRANCH  65  92
BRANCH  66 101
ATOM    101  O3  SGN d 503     -19.663  51.759 172.007  0.00  0.00    -0.391 OA
ATOM    102  H   SGN d 503     -20.540  51.369 172.144  0.00  0.00     0.210 HD
ENDBRANCH  66 101
ENDBRANCH  60  61
ENDBRANCH   3  60
TORSDOF 40
ENDMDL
MODEL 12
REMARK VINA RESULT:      -3.8      2.693      6.209
REMARK WARNING: 32 MAX_TORS EXCEEDED!!!
REMARK  40 active torsions:
REMARK  status: ('A' for Active; 'I' for Inactive)
REMARK    1 I    between atoms: C6_1  and  C5_8 
REMARK    2 I    between atoms: C6_1  and  O6_57 
REMARK    3 I    between atoms: O4_2  and  C4_49 
REMARK    4 I    between atoms: O6_3  and  C6_7 
REMARK    5 I    between atoms: O6_3  and  S2_58 
REMARK    6 I    between atoms: S_4  and  O2_6 
REMARK    7 I    between atoms: O3_5  and  C3_81 
REMARK    8 I    between atoms: O2_6  and  C2_11 
REMARK    9 I    between atoms: C6_7  and  C5_54 
REMARK   10 I    between atoms: O4_9  and  C4_32 
REMARK   11 I    between atoms: O4_9  and  C1_39 
REMARK   12 I    between atoms: O3_12  and  C3_18 
REMARK   13 I    between atoms: N_13  and  C2_52 
REMARK   14 I    between atoms: N_13  and  S1_45 
REMARK   15 I    between atoms: O3_17  and  C3_83 
REMARK   16 I    between atoms: C4_20  and  O4_44 
REMARK   17 I    between atoms: N_21  and  C2_66 
REMARK   18 I    between atoms: N_21  and  S1_53 
REMARK   19 I    between atoms: O3_22  and  C3_65 
REMARK   20 I    between atoms: C4_23  and  O4_74 
REMARK   21 I    between atoms: C1_25  and  O1_72 
REMARK   22 I    between atoms: C2_28  and  O2_69 
REMARK   23 I    between atoms: C4_33  and  O4_61 
REMARK   24 I    between atoms: O2S_34  and  S1_45 
REMARK   25 I    between atoms: C6_37  and  C5_47 
REMARK   26 I    between atoms: O2_38  and  C2_77 
REMARK   27 I    between atoms: O2_38  and  S_50 
REMARK   28 I    between atoms: O3S_40  and  S1_53 
REMARK   29 I    between atoms: O1S_42  and  S1_45 
REMARK   30 I    between atoms: O1S_43  and  S1_53 
REMARK   31 I    between atoms: O4_44  and  C1_46 
REMARK   32 I    between atoms: S1_45  and  O3S_60 
REMARK   33 I    between atoms: C6_48  and  C5_84 
REMARK   34 I    between atoms: C6_51  and  C5_87 
REMARK   35 I    between atoms: S1_53  and  O2S_55 
REMARK   36 I    between atoms: C1_56  and  O4_74 
REMARK   37 I    between atoms: O6_57  and  S2_82 
REMARK   38 I    between atoms: O4_61  and  C1_70 
REMARK   39 I    between atoms: C3_63  and  O3_79 
REMARK   40 I    between atoms: O2_69  and  S_76 
ROOT
ATOM      1  C3  IDS d 504     -15.537  48.350 170.887  0.00  0.00     0.185 C 
ATOM      2  C4  IDS d 504     -14.206  48.209 171.609  0.00  0.00     0.195 C 
ATOM      3  C1  IDS d 504     -16.616  48.672 173.199  0.00  0.00     0.294 C 
ATOM      4  O5  IDS d 504     -15.301  48.490 173.734  0.00  0.00    -0.340 OA
ATOM      5  C2  IDS d 504     -16.754  48.024 171.836  0.00  0.00     0.231 C 
ATOM      6  C5  IDS d 504     -14.267  48.993 172.919  0.00  0.00     0.257 C 
ENDROOT
BRANCH   2   7
ATOM      7  O4  IDS d 504     -13.958  46.835 171.873  0.00  0.00    -0.348 OA
BRANCH   7   8
ATOM      8  C1  SGN d 505     -13.585  46.099 170.740  0.00  0.00     0.282 C 
ATOM      9  O5  SGN d 505     -12.370  46.572 170.229  0.00  0.00    -0.349 OA
ATOM     10  C5  SGN d 505     -11.291  46.400 171.096  0.00  0.00     0.181 C 
ATOM     11  C4  SGN d 505     -11.026  44.946 171.315  0.00  0.00     0.186 C 
ATOM     12  C3  SGN d 505     -12.286  44.365 172.019  0.00  0.00     0.173 C 
ATOM     13  C2  SGN d 505     -13.459  44.621 171.052  0.00  0.00     0.157 C 
BRANCH  10  14
ATOM     14  C6  SGN d 505     -10.135  47.113 170.473  0.00  0.00     0.227 C 
BRANCH  14  15
ATOM     15  O6  SGN d 505     -10.497  47.302 169.148  0.00  0.00    -0.254 OA
BRANCH  15  16
ATOM     16  S2  SGN d 505     -10.459  48.603 168.359  0.00  0.00     0.251 S 
ATOM     17  O5S SGN d 505     -11.500  49.411 168.944  0.00  0.00    -0.572 OA
ATOM     18  O4S SGN d 505     -10.704  48.209 166.990  0.00  0.00    -0.572 OA
ATOM     19  O6S SGN d 505      -9.134  49.176 168.551  0.00  0.00    -0.572 OA
ENDBRANCH  15  16
ENDBRANCH  14  15
ENDBRANCH  10  14
BRANCH  11  20
ATOM     20  O4  SGN d 505      -9.828  44.881 172.059  0.00  0.00    -0.348 OA
BRANCH  20  21
ATOM     21  C1  IDS d 506      -8.725  44.133 171.674  0.00  0.00     0.294 C 
ATOM     22  C2  IDS d 506      -7.599  44.345 172.696  0.00  0.00     0.231 C 
ATOM     23  C3  IDS d 506      -6.217  43.836 172.202  0.00  0.00     0.185 C 
ATOM     24  C4  IDS d 506      -5.966  44.081 170.699  0.00  0.00     0.189 C 
ATOM     25  C5  IDS d 506      -7.249  43.858 169.892  0.00  0.00     0.256 C 
ATOM     26  O5  IDS d 506      -8.287  44.611 170.427  0.00  0.00    -0.340 OA
BRANCH  22  27
ATOM     27  O2  IDS d 506      -7.452  45.722 172.979  0.00  0.00    -0.244 OA
BRANCH  27  28
ATOM     28  S   IDS d 506      -7.511  46.449 174.391  0.00  0.00     0.252 S 
ATOM     29  O1S IDS d 506      -6.286  46.097 175.041  0.00  0.00    -0.572 OA
ATOM     30  O2S IDS d 506      -7.585  47.864 174.162  0.00  0.00    -0.572 OA
ATOM     31  O3S IDS d 506      -8.682  45.915 175.053  0.00  0.00    -0.572 OA
ENDBRANCH  27  28
ENDBRANCH  22  27
BRANCH  23  32
ATOM     32  O3  IDS d 506      -6.133  42.436 172.454  0.00  0.00    -0.390 OA
ATOM     33  H   IDS d 506      -5.295  42.237 172.901  0.00  0.00     0.210 HD
ENDBRANCH  23  32
BRANCH  24  34
ATOM     34  O4  IDS d 506      -5.541  45.416 170.558  0.00  0.00    -0.390 OA
ATOM     35  H   IDS d 506      -6.275  46.014 170.771  0.00  0.00     0.210 HD
ENDBRANCH  24  34
BRANCH  25  36
ATOM     36  C6  IDS d 506      -7.163  44.110 168.398  0.00  0.00     0.206 C 
ATOM     37  O62 IDS d 506      -7.242  45.231 167.926  0.00  0.00    -0.646 OA
ATOM     38  O61 IDS d 506      -6.994  43.175 167.628  0.00  0.00    -0.646 OA
ENDBRANCH  25  36
ENDBRANCH  20  21
ENDBRANCH  11  20
BRANCH  12  39
ATOM     39  O3  SGN d 505     -12.152  42.961 172.203  0.00  0.00    -0.391 OA
ATOM     40  H   SGN d 505     -11.265  42.763 172.542  0.00  0.00     0.210 HD
ENDBRANCH  12  39
BRANCH  13  41
ATOM     41  N   SGN d 505     -14.773  44.102 171.498  0.00  0.00    -0.210 NA
ATOM     42  H   SGN d 505     -15.492  44.696 171.087  0.00  0.00     0.140 HD
BRANCH  41  43
ATOM     43  S1  SGN d 505     -15.151  42.516 171.109  0.00  0.00     0.156 S 
BRANCH  43  44
ATOM     44  O3S SGN d 505     -15.000  41.751 172.295  0.00  0.00    -0.296 OA
ATOM     45  H   SGN d 505     -14.058  41.578 172.451  0.00  0.00     0.231 HD
ENDBRANCH  43  44
BRANCH  43  46
ATOM     46  O1S SGN d 505     -16.504  42.502 170.595  0.00  0.00    -0.296 OA
ATOM     47  H   SGN d 505     -16.902  43.379 170.708  0.00  0.00     0.231 HD
ENDBRANCH  43  46
BRANCH  43  48
ATOM     48  O2S SGN d 505     -14.178  42.136 170.111  0.00  0.00    -0.296 OA
ATOM     49  H   SGN d 505     -13.384  41.791 170.548  0.00  0.00     0.231 HD
ENDBRANCH  43  48
ENDBRANCH  41  43
ENDBRANCH  13  41
ENDBRANCH   7   8
ENDBRANCH   2   7
BRANCH   1  50
ATOM     50  O3  IDS d 504     -15.629  49.696 170.439  0.00  0.00    -0.390 OA
ATOM     51  H   IDS d 504     -16.200  49.738 169.656  0.00  0.00     0.210 HD
ENDBRANCH   1  50
BRANCH   6  52
ATOM     52  C6  IDS d 504     -12.946  49.057 173.703  0.00  0.00     0.206 C 
ATOM     53  O62 IDS d 504     -12.367  48.029 174.060  0.00  0.00    -0.646 OA
ATOM     54  O61 IDS d 504     -12.447  50.132 174.008  0.00  0.00    -0.646 OA
ENDBRANCH   6  52
BRANCH   5  55
ATOM     55  O2  IDS d 504     -16.880  46.615 172.020  0.00  0.00    -0.244 OA
BRANCH  55  56
ATOM     56  S   IDS d 504     -17.864  45.677 171.297  0.00  0.00     0.252 S 
ATOM     57  O2S IDS d 504     -19.104  46.381 171.149  0.00  0.00    -0.572 OA
ATOM     58  O3S IDS d 504     -17.204  45.372 170.084  0.00  0.00    -0.572 OA
ATOM     59  O1S IDS d 504     -18.008  44.535 172.124  0.00  0.00    -0.572 OA
ENDBRANCH  55  56
ENDBRANCH   5  55
BRANCH   3  60
ATOM     60  O4  SGN d 503     -16.965  50.021 173.082  0.00  0.00    -0.348 OA
BRANCH  60  61
ATOM     61  C4  SGN d 503     -17.222  50.647 174.296  0.00  0.00     0.186 C 
ATOM     62  C5  SGN d 503     -18.742  50.840 174.440  0.00  0.00     0.181 C 
ATOM     63  O5  SGN d 503     -19.048  51.558 175.594  0.00  0.00    -0.349 OA
ATOM     64  C1  SGN d 503     -18.506  52.856 175.603  0.00  0.00     0.282 C 
ATOM     65  C2  SGN d 503     -16.975  52.772 175.527  0.00  0.00     0.157 C 
ATOM     66  C3  SGN d 503     -16.517  52.001 174.303  0.00  0.00     0.173 C 
BRANCH  62  67
ATOM     67  C6  SGN d 503     -19.522  49.560 174.572  0.00  0.00     0.227 C 
BRANCH  67  68
ATOM     68  O6  SGN d 503     -19.389  49.117 175.906  0.00  0.00    -0.254 OA
BRANCH  68  69
ATOM     69  S2  SGN d 503     -18.757  47.771 176.351  0.00  0.00     0.251 S 
ATOM     70  O6S SGN d 503     -18.894  46.944 175.217  0.00  0.00    -0.572 OA
ATOM     71  O4S SGN d 503     -17.379  47.995 176.630  0.00  0.00    -0.572 OA
ATOM     72  O5S SGN d 503     -19.488  47.327 177.534  0.00  0.00    -0.572 OA
ENDBRANCH  68  69
ENDBRANCH  67  68
ENDBRANCH  62  67
BRANCH  64  73
ATOM     73  O4  IDS d 502     -19.018  53.633 174.556  0.00  0.00    -0.348 OA
BRANCH  73  74
ATOM     74  C4  IDS d 502     -20.387  53.930 174.659  0.00  0.00     0.195 C 
ATOM     75  C3  IDS d 502     -20.575  55.231 175.463  0.00  0.00     0.185 C 
ATOM     76  C2  IDS d 502     -20.085  56.444 174.665  0.00  0.00     0.231 C 
ATOM     77  C1  IDS d 502     -20.628  56.444 173.240  0.00  0.00     0.291 C 
ATOM     78  O5  IDS d 502     -20.403  55.210 172.607  0.00  0.00    -0.340 OA
ATOM     79  C5  IDS d 502     -20.978  54.095 173.260  0.00  0.00     0.257 C 
BRANCH  75  80
ATOM     80  O3  IDS d 502     -21.952  55.411 175.731  0.00  0.00    -0.390 OA
ATOM     81  H   IDS d 502     -22.419  55.607 174.904  0.00  0.00     0.210 HD
ENDBRANCH  75  80
BRANCH  76  82
ATOM     82  O2  IDS d 502     -18.686  56.360 174.598  0.00  0.00    -0.244 OA
BRANCH  82  83
ATOM     83  S   IDS d 502     -17.637  57.257 175.333  0.00  0.00     0.252 S 
ATOM     84  O3S IDS d 502     -16.402  57.033 174.627  0.00  0.00    -0.572 OA
ATOM     85  O2S IDS d 502     -17.616  56.798 176.703  0.00  0.00    -0.572 OA
ATOM     86  O1S IDS d 502     -18.085  58.617 175.220  0.00  0.00    -0.572 OA
ENDBRANCH  82  83
ENDBRANCH  76  82
BRANCH  77  87
ATOM     87  O1  IDS d 502     -21.988  56.782 173.296  0.00  0.00    -0.368 OA
ATOM     88  H   IDS d 502     -22.085  57.670 173.676  0.00  0.00     0.212 HD
ENDBRANCH  77  87
BRANCH  79  89
ATOM     89  C6  IDS d 502     -20.878  52.850 172.390  0.00  0.00     0.206 C 
ATOM     90  O61 IDS d 502     -20.096  52.788 171.472  0.00  0.00    -0.646 OA
ATOM     91  O62 IDS d 502     -21.582  51.882 172.600  0.00  0.00    -0.646 OA
ENDBRANCH  79  89
ENDBRANCH  73  74
ENDBRANCH  64  73
BRANCH  65  92
ATOM     92  N   SGN d 503     -16.391  54.101 175.564  0.00  0.00    -0.210 NA
ATOM     93  H   SGN d 503     -17.034  54.703 176.078  0.00  0.00     0.140 HD
BRANCH  92  94
ATOM     94  S1  SGN d 503     -14.923  54.260 176.249  0.00  0.00     0.156 S 
BRANCH  94  95
ATOM     95  O2S SGN d 503     -13.919  54.237 175.187  0.00  0.00    -0.296 OA
ATOM     96  H   SGN d 503     -13.529  53.350 175.130  0.00  0.00     0.231 HD
ENDBRANCH  94  95
BRANCH  94  97
ATOM     97  O1S SGN d 503     -14.778  53.141 177.160  0.00  0.00    -0.296 OA
ATOM     98  H   SGN d 503     -15.619  52.987 177.619  0.00  0.00     0.231 HD
ENDBRANCH  94  97
BRANCH  94  99
ATOM     99  O3S SGN d 503     -15.015  55.527 176.940  0.00  0.00    -0.296 OA
ATOM    100  H   SGN d 503     -14.561  55.463 177.794  0.00  0.00     0.231 HD
ENDBRANCH  94  99
ENDBRANCH  92  94
ENDBRANCH  65  92
BRANCH  66 101
ATOM    101  O3  SGN d 503     -15.122  51.771 174.372  0.00  0.00    -0.391 OA
ATOM    102  H   SGN d 503     -14.650  52.610 174.260  0.00  0.00     0.210 HD
ENDBRANCH  66 101
ENDBRANCH  60  61
ENDBRANCH   3  60
TORSDOF 40
ENDMDL
MODEL 13
REMARK VINA RESULT:      -3.7      1.733      2.789
REMARK WARNING: 32 MAX_TORS EXCEEDED!!!
REMARK  40 active torsions:
REMARK  status: ('A' for Active; 'I' for Inactive)
REMARK    1 I    between atoms: C6_1  and  C5_8 
REMARK    2 I    between atoms: C6_1  and  O6_57 
REMARK    3 I    between atoms: O4_2  and  C4_49 
REMARK    4 I    between atoms: O6_3  and  C6_7 
REMARK    5 I    between atoms: O6_3  and  S2_58 
REMARK    6 I    between atoms: S_4  and  O2_6 
REMARK    7 I    between atoms: O3_5  and  C3_81 
REMARK    8 I    between atoms: O2_6  and  C2_11 
REMARK    9 I    between atoms: C6_7  and  C5_54 
REMARK   10 I    between atoms: O4_9  and  C4_32 
REMARK   11 I    between atoms: O4_9  and  C1_39 
REMARK   12 I    between atoms: O3_12  and  C3_18 
REMARK   13 I    between atoms: N_13  and  C2_52 
REMARK   14 I    between atoms: N_13  and  S1_45 
REMARK   15 I    between atoms: O3_17  and  C3_83 
REMARK   16 I    between atoms: C4_20  and  O4_44 
REMARK   17 I    between atoms: N_21  and  C2_66 
REMARK   18 I    between atoms: N_21  and  S1_53 
REMARK   19 I    between atoms: O3_22  and  C3_65 
REMARK   20 I    between atoms: C4_23  and  O4_74 
REMARK   21 I    between atoms: C1_25  and  O1_72 
REMARK   22 I    between atoms: C2_28  and  O2_69 
REMARK   23 I    between atoms: C4_33  and  O4_61 
REMARK   24 I    between atoms: O2S_34  and  S1_45 
REMARK   25 I    between atoms: C6_37  and  C5_47 
REMARK   26 I    between atoms: O2_38  and  C2_77 
REMARK   27 I    between atoms: O2_38  and  S_50 
REMARK   28 I    between atoms: O3S_40  and  S1_53 
REMARK   29 I    between atoms: O1S_42  and  S1_45 
REMARK   30 I    between atoms: O1S_43  and  S1_53 
REMARK   31 I    between atoms: O4_44  and  C1_46 
REMARK   32 I    between atoms: S1_45  and  O3S_60 
REMARK   33 I    between atoms: C6_48  and  C5_84 
REMARK   34 I    between atoms: C6_51  and  C5_87 
REMARK   35 I    between atoms: S1_53  and  O2S_55 
REMARK   36 I    between atoms: C1_56  and  O4_74 
REMARK   37 I    between atoms: O6_57  and  S2_82 
REMARK   38 I    between atoms: O4_61  and  C1_70 
REMARK   39 I    between atoms: C3_63  and  O3_79 
REMARK   40 I    between atoms: O2_69  and  S_76 
ROOT
ATOM      1  C3  IDS d 504     -18.141  49.810 174.512  0.00  0.00     0.185 C 
ATOM      2  C4  IDS d 504     -16.971  49.736 173.544  0.00  0.00     0.195 C 
ATOM      3  C1  IDS d 504     -18.018  52.367 174.270  0.00  0.00     0.294 C 
ATOM      4  O5  IDS d 504     -16.907  52.137 173.397  0.00  0.00    -0.340 OA
ATOM      5  C2  IDS d 504     -18.217  51.212 175.231  0.00  0.00     0.231 C 
ATOM      6  C5  IDS d 504     -17.005  50.959 172.630  0.00  0.00     0.257 C 
ENDROOT
BRANCH   2   7
ATOM      7  O4  IDS d 504     -15.755  49.708 174.278  0.00  0.00    -0.348 OA
BRANCH   7   8
ATOM      8  C1  SGN d 505     -15.486  48.471 174.882  0.00  0.00     0.282 C 
ATOM      9  O5  SGN d 505     -15.406  47.463 173.914  0.00  0.00    -0.349 OA
ATOM     10  C5  SGN d 505     -14.347  47.624 173.021  0.00  0.00     0.181 C 
ATOM     11  C4  SGN d 505     -13.041  47.513 173.738  0.00  0.00     0.186 C 
ATOM     12  C3  SGN d 505     -12.983  48.697 174.746  0.00  0.00     0.173 C 
ATOM     13  C2  SGN d 505     -14.196  48.509 175.678  0.00  0.00     0.157 C 
BRANCH  10  14
ATOM     14  C6  SGN d 505     -14.523  46.577 171.970  0.00  0.00     0.227 C 
BRANCH  14  15
ATOM     15  O6  SGN d 505     -14.416  47.252 170.763  0.00  0.00    -0.254 OA
BRANCH  15  16
ATOM     16  S2  SGN d 505     -14.842  46.756 169.389  0.00  0.00     0.251 S 
ATOM     17  O5S SGN d 505     -16.091  46.074 169.622  0.00  0.00    -0.572 OA
ATOM     18  O4S SGN d 505     -13.763  45.898 168.957  0.00  0.00    -0.572 OA
ATOM     19  O6S SGN d 505     -14.999  47.932 168.544  0.00  0.00    -0.572 OA
ENDBRANCH  15  16
ENDBRANCH  14  15
ENDBRANCH  10  14
BRANCH  11  20
ATOM     20  O4  SGN d 505     -12.049  47.519 172.733  0.00  0.00    -0.348 OA
BRANCH  20  21
ATOM     21  C1  IDS d 506     -10.993  46.622 172.691  0.00  0.00     0.294 C 
ATOM     22  C2  IDS d 506     -10.047  47.019 171.548  0.00  0.00     0.231 C 
ATOM     23  C3  IDS d 506      -9.020  45.910 171.186  0.00  0.00     0.185 C 
ATOM     24  C4  IDS d 506      -9.596  44.480 171.265  0.00  0.00     0.189 C 
ATOM     25  C5  IDS d 506     -10.552  44.345 172.455  0.00  0.00     0.256 C 
ATOM     26  O5  IDS d 506     -11.514  45.347 172.412  0.00  0.00    -0.340 OA
BRANCH  22  27
ATOM     27  O2  IDS d 506     -10.789  47.289 170.375  0.00  0.00    -0.244 OA
BRANCH  27  28
ATOM     28  S   IDS d 506     -10.634  48.511 169.372  0.00  0.00     0.252 S 
ATOM     29  O1S IDS d 506     -11.951  49.056 169.244  0.00  0.00    -0.572 OA
ATOM     30  O2S IDS d 506      -9.737  49.463 169.964  0.00  0.00    -0.572 OA
ATOM     31  O3S IDS d 506     -10.130  47.941 168.141  0.00  0.00    -0.572 OA
ENDBRANCH  27  28
ENDBRANCH  22  27
BRANCH  23  32
ATOM     32  O3  IDS d 506      -7.917  46.005 172.084  0.00  0.00    -0.390 OA
ATOM     33  H   IDS d 506      -7.418  45.172 172.072  0.00  0.00     0.210 HD
ENDBRANCH  23  32
BRANCH  24  34
ATOM     34  O4  IDS d 506     -10.295  44.244 170.065  0.00  0.00    -0.390 OA
ATOM     35  H   IDS d 506      -9.741  43.720 169.466  0.00  0.00     0.210 HD
ENDBRANCH  24  34
BRANCH  25  36
ATOM     36  C6  IDS d 506     -11.233  43.000 172.630  0.00  0.00     0.206 C 
ATOM     37  O62 IDS d 506     -12.070  42.807 173.494  0.00  0.00    -0.646 OA
ATOM     38  O61 IDS d 506     -10.957  42.073 171.881  0.00  0.00    -0.646 OA
ENDBRANCH  25  36
ENDBRANCH  20  21
ENDBRANCH  11  20
BRANCH  12  39
ATOM     39  O3  SGN d 505     -11.798  48.630 175.528  0.00  0.00    -0.391 OA
ATOM     40  H   SGN d 505     -11.139  49.246 175.170  0.00  0.00     0.210 HD
ENDBRANCH  12  39
BRANCH  13  41
ATOM     41  N   SGN d 505     -14.321  49.509 176.764  0.00  0.00    -0.210 NA
ATOM     42  H   SGN d 505     -15.306  49.762 176.835  0.00  0.00     0.140 HD
BRANCH  41  43
ATOM     43  S1  SGN d 505     -13.808  49.056 178.295  0.00  0.00     0.156 S 
BRANCH  43  44
ATOM     44  O3S SGN d 505     -14.491  49.886 179.222  0.00  0.00    -0.296 OA
ATOM     45  H   SGN d 505     -15.037  49.337 179.806  0.00  0.00     0.231 HD
ENDBRANCH  43  44
BRANCH  43  46
ATOM     46  O1S SGN d 505     -14.114  47.651 178.461  0.00  0.00    -0.296 OA
ATOM     47  H   SGN d 505     -14.801  47.393 177.828  0.00  0.00     0.231 HD
ENDBRANCH  43  46
BRANCH  43  48
ATOM     48  O2S SGN d 505     -12.388  49.317 178.303  0.00  0.00    -0.296 OA
ATOM     49  H   SGN d 505     -11.925  48.602 177.838  0.00  0.00     0.231 HD
ENDBRANCH  43  48
ENDBRANCH  41  43
ENDBRANCH  13  41
ENDBRANCH   7   8
ENDBRANCH   2   7
BRANCH   1  50
ATOM     50  O3  IDS d 504     -19.325  49.598 173.754  0.00  0.00    -0.390 OA
ATOM     51  H   IDS d 504     -19.212  48.816 173.190  0.00  0.00     0.210 HD
ENDBRANCH   1  50
BRANCH   6  52
ATOM     52  C6  IDS d 504     -15.957  50.962 171.504  0.00  0.00     0.206 C 
ATOM     53  O62 IDS d 504     -15.318  51.980 171.231  0.00  0.00    -0.646 OA
ATOM     54  O61 IDS d 504     -15.746  49.956 170.839  0.00  0.00    -0.646 OA
ENDBRANCH   6  52
BRANCH   5  55
ATOM     55  O2  IDS d 504     -17.226  51.304 176.252  0.00  0.00    -0.244 OA
BRANCH  55  56
ATOM     56  S   IDS d 504     -17.226  52.270 177.451  0.00  0.00     0.252 S 
ATOM     57  O2S IDS d 504     -18.584  52.425 177.883  0.00  0.00    -0.572 OA
ATOM     58  O3S IDS d 504     -16.372  51.641 178.387  0.00  0.00    -0.572 OA
ATOM     59  O1S IDS d 504     -16.686  53.492 176.979  0.00  0.00    -0.572 OA
ENDBRANCH  55  56
ENDBRANCH   5  55
BRANCH   3  60
ATOM     60  O4  SGN d 503     -19.213  52.570 173.572  0.00  0.00    -0.348 OA
BRANCH  60  61
ATOM     61  C4  SGN d 503     -19.455  53.897 173.237  0.00  0.00     0.186 C 
ATOM     62  C5  SGN d 503     -20.950  54.195 173.447  0.00  0.00     0.181 C 
ATOM     63  O5  SGN d 503     -21.268  55.484 173.025  0.00  0.00    -0.349 OA
ATOM     64  C1  SGN d 503     -21.036  55.695 171.654  0.00  0.00     0.282 C 
ATOM     65  C2  SGN d 503     -19.546  55.483 171.347  0.00  0.00     0.157 C 
ATOM     66  C3  SGN d 503     -19.079  54.103 171.772  0.00  0.00     0.173 C 
BRANCH  62  67
ATOM     67  C6  SGN d 503     -21.398  54.145 174.883  0.00  0.00     0.227 C 
BRANCH  67  68
ATOM     68  O6  SGN d 503     -21.088  55.391 175.468  0.00  0.00    -0.254 OA
BRANCH  68  69
ATOM     69  S2  SGN d 503     -22.064  56.265 176.300  0.00  0.00     0.251 S 
ATOM     70  O6S SGN d 503     -23.162  55.412 176.535  0.00  0.00    -0.572 OA
ATOM     71  O4S SGN d 503     -21.429  56.596 177.531  0.00  0.00    -0.572 OA
ATOM     72  O5S SGN d 503     -22.360  57.451 175.503  0.00  0.00    -0.572 OA
ENDBRANCH  68  69
ENDBRANCH  67  68
ENDBRANCH  62  67
BRANCH  64  73
ATOM     73  O4  IDS d 502     -21.834  54.858 170.864  0.00  0.00    -0.348 OA
BRANCH  73  74
ATOM     74  C4  IDS d 502     -23.174  55.263 170.744  0.00  0.00     0.195 C 
ATOM     75  C3  IDS d 502     -23.314  56.243 169.564  0.00  0.00     0.185 C 
ATOM     76  C2  IDS d 502     -23.119  55.523 168.227  0.00  0.00     0.231 C 
ATOM     77  C1  IDS d 502     -23.945  54.243 168.145  0.00  0.00     0.291 C 
ATOM     78  O5  IDS d 502     -23.740  53.429 169.273  0.00  0.00    -0.340 OA
ATOM     79  C5  IDS d 502     -24.055  54.039 170.509  0.00  0.00     0.257 C 
BRANCH  75  80
ATOM     80  O3  IDS d 502     -24.615  56.796 169.579  0.00  0.00    -0.390 OA
ATOM     81  H   IDS d 502     -24.564  57.748 169.400  0.00  0.00     0.210 HD
ENDBRANCH  75  80
BRANCH  76  82
ATOM     82  O2  IDS d 502     -21.764  55.173 168.136  0.00  0.00    -0.244 OA
BRANCH  82  83
ATOM     83  S   IDS d 502     -20.967  54.756 166.856  0.00  0.00     0.252 S 
ATOM     84  O3S IDS d 502     -21.760  55.239 165.755  0.00  0.00    -0.572 OA
ATOM     85  O2S IDS d 502     -20.861  53.316 166.909  0.00  0.00    -0.572 OA
ATOM     86  O1S IDS d 502     -19.686  55.401 166.923  0.00  0.00    -0.572 OA
ENDBRANCH  82  83
ENDBRANCH  76  82
BRANCH  77  87
ATOM     87  O1  IDS d 502     -25.290  54.606 167.980  0.00  0.00    -0.368 OA
ATOM     88  H   IDS d 502     -25.634  54.209 167.164  0.00  0.00     0.212 HD
ENDBRANCH  77  87
BRANCH  79  89
ATOM     89  C6  IDS d 502     -24.020  53.017 171.637  0.00  0.00     0.206 C 
ATOM     90  O61 IDS d 502     -23.612  51.896 171.455  0.00  0.00    -0.646 OA
ATOM     91  O62 IDS d 502     -24.398  53.307 172.756  0.00  0.00    -0.646 OA
ENDBRANCH  79  89
ENDBRANCH  73  74
ENDBRANCH  64  73
BRANCH  65  92
ATOM     92  N   SGN d 503     -19.277  55.724 169.941  0.00  0.00    -0.210 NA
ATOM     93  H   SGN d 503     -20.113  55.459 169.420  0.00  0.00     0.140 HD
BRANCH  92  94
ATOM     94  S1  SGN d 503     -18.888  57.240 169.497  0.00  0.00     0.156 S 
BRANCH  94  95
ATOM     95  O2S SGN d 503     -18.562  58.000 170.704  0.00  0.00    -0.296 OA
ATOM     96  H   SGN d 503     -18.198  57.400 171.374  0.00  0.00     0.231 HD
ENDBRANCH  94  95
BRANCH  94  97
ATOM     97  O1S SGN d 503     -20.052  57.774 168.815  0.00  0.00    -0.296 OA
ATOM     98  H   SGN d 503     -20.093  57.413 167.916  0.00  0.00     0.231 HD
ENDBRANCH  94  97
BRANCH  94  99
ATOM     99  O3S SGN d 503     -17.765  57.047 168.607  0.00  0.00    -0.296 OA
ATOM    100  H   SGN d 503     -17.015  57.579 168.914  0.00  0.00     0.231 HD
ENDBRANCH  94  99
ENDBRANCH  92  94
ENDBRANCH  65  92
BRANCH  66 101
ATOM    101  O3  SGN d 503     -17.671  54.016 171.662  0.00  0.00    -0.391 OA
ATOM    102  H   SGN d 503     -17.355  53.239 172.149  0.00  0.00     0.210 HD
ENDBRANCH  66 101
ENDBRANCH  60  61
ENDBRANCH   3  60
TORSDOF 40
ENDMDL
MODEL 14
REMARK VINA RESULT:      -3.7      2.568     12.643
REMARK WARNING: 32 MAX_TORS EXCEEDED!!!
REMARK  40 active torsions:
REMARK  status: ('A' for Active; 'I' for Inactive)
REMARK    1 I    between atoms: C6_1  and  C5_8 
REMARK    2 I    between atoms: C6_1  and  O6_57 
REMARK    3 I    between atoms: O4_2  and  C4_49 
REMARK    4 I    between atoms: O6_3  and  C6_7 
REMARK    5 I    between atoms: O6_3  and  S2_58 
REMARK    6 I    between atoms: S_4  and  O2_6 
REMARK    7 I    between atoms: O3_5  and  C3_81 
REMARK    8 I    between atoms: O2_6  and  C2_11 
REMARK    9 I    between atoms: C6_7  and  C5_54 
REMARK   10 I    between atoms: O4_9  and  C4_32 
REMARK   11 I    between atoms: O4_9  and  C1_39 
REMARK   12 I    between atoms: O3_12  and  C3_18 
REMARK   13 I    between atoms: N_13  and  C2_52 
REMARK   14 I    between atoms: N_13  and  S1_45 
REMARK   15 I    between atoms: O3_17  and  C3_83 
REMARK   16 I    between atoms: C4_20  and  O4_44 
REMARK   17 I    between atoms: N_21  and  C2_66 
REMARK   18 I    between atoms: N_21  and  S1_53 
REMARK   19 I    between atoms: O3_22  and  C3_65 
REMARK   20 I    between atoms: C4_23  and  O4_74 
REMARK   21 I    between atoms: C1_25  and  O1_72 
REMARK   22 I    between atoms: C2_28  and  O2_69 
REMARK   23 I    between atoms: C4_33  and  O4_61 
REMARK   24 I    between atoms: O2S_34  and  S1_45 
REMARK   25 I    between atoms: C6_37  and  C5_47 
REMARK   26 I    between atoms: O2_38  and  C2_77 
REMARK   27 I    between atoms: O2_38  and  S_50 
REMARK   28 I    between atoms: O3S_40  and  S1_53 
REMARK   29 I    between atoms: O1S_42  and  S1_45 
REMARK   30 I    between atoms: O1S_43  and  S1_53 
REMARK   31 I    between atoms: O4_44  and  C1_46 
REMARK   32 I    between atoms: S1_45  and  O3S_60 
REMARK   33 I    between atoms: C6_48  and  C5_84 
REMARK   34 I    between atoms: C6_51  and  C5_87 
REMARK   35 I    between atoms: S1_53  and  O2S_55 
REMARK   36 I    between atoms: C1_56  and  O4_74 
REMARK   37 I    between atoms: O6_57  and  S2_82 
REMARK   38 I    between atoms: O4_61  and  C1_70 
REMARK   39 I    between atoms: C3_63  and  O3_79 
REMARK   40 I    between atoms: O2_69  and  S_76 
ROOT
ATOM      1  C3  IDS d 504     -14.917  49.363 176.082  0.00  0.00     0.185 C 
ATOM      2  C4  IDS d 504     -15.323  50.519 175.181  0.00  0.00     0.195 C 
ATOM      3  C1  IDS d 504     -14.706  47.940 173.952  0.00  0.00     0.294 C 
ATOM      4  O5  IDS d 504     -15.129  49.108 173.241  0.00  0.00    -0.340 OA
ATOM      5  C2  IDS d 504     -15.172  47.968 175.393  0.00  0.00     0.231 C 
ATOM      6  C5  IDS d 504     -14.689  50.322 173.806  0.00  0.00     0.257 C 
ENDROOT
BRANCH   2   7
ATOM      7  O4  IDS d 504     -16.738  50.551 175.067  0.00  0.00    -0.348 OA
BRANCH   7   8
ATOM      8  C1  SGN d 505     -17.384  51.108 176.179  0.00  0.00     0.282 C 
ATOM      9  O5  SGN d 505     -17.298  52.505 176.145  0.00  0.00    -0.349 OA
ATOM     10  C5  SGN d 505     -17.962  53.082 175.063  0.00  0.00     0.181 C 
ATOM     11  C4  SGN d 505     -19.432  52.834 175.162  0.00  0.00     0.186 C 
ATOM     12  C3  SGN d 505     -19.631  51.293 175.062  0.00  0.00     0.173 C 
ATOM     13  C2  SGN d 505     -18.842  50.694 176.242  0.00  0.00     0.157 C 
BRANCH  10  14
ATOM     14  C6  SGN d 505     -17.617  54.536 175.086  0.00  0.00     0.227 C 
BRANCH  14  15
ATOM     15  O6  SGN d 505     -16.239  54.579 175.241  0.00  0.00    -0.254 OA
BRANCH  15  16
ATOM     16  S2  SGN d 505     -15.449  55.437 176.217  0.00  0.00     0.251 S 
ATOM     17  O5S SGN d 505     -14.454  56.090 175.403  0.00  0.00    -0.572 OA
ATOM     18  O4S SGN d 505     -14.914  54.501 177.180  0.00  0.00    -0.572 OA
ATOM     19  O6S SGN d 505     -16.388  56.379 176.811  0.00  0.00    -0.572 OA
ENDBRANCH  15  16
ENDBRANCH  14  15
ENDBRANCH  10  14
BRANCH  11  20
ATOM     20  O4  SGN d 505     -20.022  53.593 174.127  0.00  0.00    -0.348 OA
BRANCH  20  21
ATOM     21  C1  IDS d 506     -21.242  54.238 174.249  0.00  0.00     0.294 C 
ATOM     22  C2  IDS d 506     -21.678  54.744 172.866  0.00  0.00     0.231 C 
ATOM     23  C3  IDS d 506     -22.847  55.766 172.925  0.00  0.00     0.185 C 
ATOM     24  C4  IDS d 506     -22.765  56.735 174.123  0.00  0.00     0.189 C 
ATOM     25  C5  IDS d 506     -22.256  56.011 175.373  0.00  0.00     0.256 C 
ATOM     26  O5  IDS d 506     -21.067  55.349 175.091  0.00  0.00    -0.340 OA
BRANCH  22  27
ATOM     27  O2  IDS d 506     -20.598  55.394 172.223  0.00  0.00    -0.244 OA
BRANCH  27  28
ATOM     28  S   IDS d 506     -19.846  54.968 170.890  0.00  0.00     0.252 S 
ATOM     29  O1S IDS d 506     -20.705  54.006 170.270  0.00  0.00    -0.572 OA
ATOM     30  O2S IDS d 506     -19.701  56.135 170.068  0.00  0.00    -0.572 OA
ATOM     31  O3S IDS d 506     -18.582  54.410 171.320  0.00  0.00    -0.572 OA
ENDBRANCH  27  28
ENDBRANCH  22  27
BRANCH  23  32
ATOM     32  O3  IDS d 506     -24.074  55.045 173.008  0.00  0.00    -0.390 OA
ATOM     33  H   IDS d 506     -24.810  55.632 172.774  0.00  0.00     0.210 HD
ENDBRANCH  23  32
BRANCH  24  34
ATOM     34  O4  IDS d 506     -21.867  57.762 173.769  0.00  0.00    -0.390 OA
ATOM     35  H   IDS d 506     -22.299  58.370 173.149  0.00  0.00     0.210 HD
ENDBRANCH  24  34
BRANCH  25  36
ATOM     36  C6  IDS d 506     -22.079  56.855 176.622  0.00  0.00     0.206 C 
ATOM     37  O62 IDS d 506     -22.631  57.933 176.757  0.00  0.00    -0.646 OA
ATOM     38  O61 IDS d 506     -21.377  56.451 177.538  0.00  0.00    -0.646 OA
ENDBRANCH  25  36
ENDBRANCH  20  21
ENDBRANCH  11  20
BRANCH  12  39
ATOM     39  O3  SGN d 505     -21.003  50.956 175.220  0.00  0.00    -0.391 OA
ATOM     40  H   SGN d 505     -21.300  50.439 174.454  0.00  0.00     0.210 HD
ENDBRANCH  12  39
BRANCH  13  41
ATOM     41  N   SGN d 505     -18.926  49.222 176.379  0.00  0.00    -0.210 NA
ATOM     42  H   SGN d 505     -18.151  48.924 176.972  0.00  0.00     0.140 HD
BRANCH  41  43
ATOM     43  S1  SGN d 505     -20.331  48.585 177.035  0.00  0.00     0.156 S 
BRANCH  43  44
ATOM     44  O3S SGN d 505     -19.941  47.548 177.922  0.00  0.00    -0.296 OA
ATOM     45  H   SGN d 505     -19.578  46.807 177.413  0.00  0.00     0.231 HD
ENDBRANCH  43  44
BRANCH  43  46
ATOM     46  O1S SGN d 505     -21.032  49.664 177.699  0.00  0.00    -0.296 OA
ATOM     47  H   SGN d 505     -21.447  50.236 177.035  0.00  0.00     0.231 HD
ENDBRANCH  43  46
BRANCH  43  48
ATOM     48  O2S SGN d 505     -21.065  48.063 175.906  0.00  0.00    -0.296 OA
ATOM     49  H   SGN d 505     -21.630  47.331 176.198  0.00  0.00     0.231 HD
ENDBRANCH  43  48
ENDBRANCH  41  43
ENDBRANCH  13  41
ENDBRANCH   7   8
ENDBRANCH   2   7
BRANCH   1  50
ATOM     50  O3  IDS d 504     -13.530  49.513 176.356  0.00  0.00    -0.390 OA
ATOM     51  H   IDS d 504     -13.045  48.756 175.992  0.00  0.00     0.210 HD
ENDBRANCH   1  50
BRANCH   6  52
ATOM     52  C6  IDS d 504     -14.898  51.482 172.818  0.00  0.00     0.206 C 
ATOM     53  O62 IDS d 504     -15.388  51.289 171.704  0.00  0.00    -0.646 OA
ATOM     54  O61 IDS d 504     -14.566  52.624 173.109  0.00  0.00    -0.646 OA
ENDBRANCH   6  52
BRANCH   5  55
ATOM     55  O2  IDS d 504     -16.561  47.644 175.421  0.00  0.00    -0.244 OA
BRANCH  55  56
ATOM     56  S   IDS d 504     -17.202  46.395 176.053  0.00  0.00     0.252 S 
ATOM     57  O2S IDS d 504     -18.505  46.238 175.476  0.00  0.00    -0.572 OA
ATOM     58  O3S IDS d 504     -16.287  45.360 175.748  0.00  0.00    -0.572 OA
ATOM     59  O1S IDS d 504     -17.275  46.644 177.447  0.00  0.00    -0.572 OA
ENDBRANCH  55  56
ENDBRANCH   5  55
BRANCH   3  60
ATOM     60  O4  SGN d 503     -13.317  47.780 173.942  0.00  0.00    -0.348 OA
BRANCH  60  61
ATOM     61  C4  SGN d 503     -12.851  46.930 172.946  0.00  0.00     0.186 C 
ATOM     62  C5  SGN d 503     -11.739  46.044 173.533  0.00  0.00     0.181 C 
ATOM     63  O5  SGN d 503     -11.163  45.244 172.548  0.00  0.00    -0.349 OA
ATOM     64  C1  SGN d 503     -10.548  45.981 171.520  0.00  0.00     0.282 C 
ATOM     65  C2  SGN d 503     -11.595  46.860 170.822  0.00  0.00     0.157 C 
ATOM     66  C3  SGN d 503     -12.298  47.779 171.803  0.00  0.00     0.173 C 
BRANCH  62  67
ATOM     67  C6  SGN d 503     -12.207  45.073 174.583  0.00  0.00     0.227 C 
BRANCH  67  68
ATOM     68  O6  SGN d 503     -13.382  44.459 174.102  0.00  0.00    -0.254 OA
BRANCH  68  69
ATOM     69  S2  SGN d 503     -13.739  42.956 174.242  0.00  0.00     0.251 S 
ATOM     70  O6S SGN d 503     -14.814  42.780 173.346  0.00  0.00    -0.572 OA
ATOM     71  O4S SGN d 503     -12.617  42.189 173.817  0.00  0.00    -0.572 OA
ATOM     72  O5S SGN d 503     -14.059  42.721 175.647  0.00  0.00    -0.572 OA
ENDBRANCH  68  69
ENDBRANCH  67  68
ENDBRANCH  62  67
BRANCH  64  73
ATOM     73  O4  IDS d 502      -9.488  46.756 172.009  0.00  0.00    -0.348 OA
BRANCH  73  74
ATOM     74  C4  IDS d 502      -8.379  46.021 172.458  0.00  0.00     0.195 C 
ATOM     75  C3  IDS d 502      -7.537  45.566 171.251  0.00  0.00     0.185 C 
ATOM     76  C2  IDS d 502      -6.835  46.758 170.592  0.00  0.00     0.231 C 
ATOM     77  C1  IDS d 502      -6.128  47.638 171.617  0.00  0.00     0.291 C 
ATOM     78  O5  IDS d 502      -6.989  47.988 172.672  0.00  0.00    -0.340 OA
ATOM     79  C5  IDS d 502      -7.531  46.893 173.382  0.00  0.00     0.257 C 
BRANCH  75  80
ATOM     80  O3  IDS d 502      -6.544  44.664 171.697  0.00  0.00    -0.390 OA
ATOM     81  H   IDS d 502      -6.958  43.820 171.934  0.00  0.00     0.210 HD
ENDBRANCH  75  80
BRANCH  76  82
ATOM     82  O2  IDS d 502      -7.824  47.529 169.965  0.00  0.00    -0.244 OA
BRANCH  82  83
ATOM     83  S   IDS d 502      -7.850  48.032 168.484  0.00  0.00     0.252 S 
ATOM     84  O3S IDS d 502      -8.569  49.279 168.532  0.00  0.00    -0.572 OA
ATOM     85  O2S IDS d 502      -8.523  47.001 167.729  0.00  0.00    -0.572 OA
ATOM     86  O1S IDS d 502      -6.486  48.210 168.070  0.00  0.00    -0.572 OA
ENDBRANCH  82  83
ENDBRANCH  76  82
BRANCH  77  87
ATOM     87  O1  IDS d 502      -4.985  46.955 172.058  0.00  0.00    -0.368 OA
ATOM     88  H   IDS d 502      -4.493  47.514 172.679  0.00  0.00     0.212 HD
ENDBRANCH  77  87
BRANCH  79  89
ATOM     89  C6  IDS d 502      -8.258  47.368 174.632  0.00  0.00     0.206 C 
ATOM     90  O61 IDS d 502      -9.005  46.639 175.239  0.00  0.00    -0.646 OA
ATOM     91  O62 IDS d 502      -8.102  48.497 175.056  0.00  0.00    -0.646 OA
ENDBRANCH  79  89
ENDBRANCH  73  74
ENDBRANCH  64  73
BRANCH  65  92
ATOM     92  N   SGN d 503     -10.987  47.610 169.737  0.00  0.00    -0.210 NA
ATOM     93  H   SGN d 503     -10.300  47.001 169.292  0.00  0.00     0.140 HD
BRANCH  92  94
ATOM     94  S1  SGN d 503     -11.968  48.173 168.568  0.00  0.00     0.156 S 
BRANCH  94  95
ATOM     95  O2S SGN d 503     -12.399  49.520 168.943  0.00  0.00    -0.296 OA
ATOM     96  H   SGN d 503     -12.758  49.504 169.844  0.00  0.00     0.231 HD
ENDBRANCH  94  95
BRANCH  94  97
ATOM     97  O1S SGN d 503     -13.082  47.246 168.492  0.00  0.00    -0.296 OA
ATOM     98  H   SGN d 503     -12.922  46.501 169.093  0.00  0.00     0.231 HD
ENDBRANCH  94  97
BRANCH  94  99
ATOM     99  O3S SGN d 503     -11.135  48.134 167.387  0.00  0.00    -0.296 OA
ATOM    100  H   SGN d 503     -10.206  48.247 167.644  0.00  0.00     0.231 HD
ENDBRANCH  94  99
ENDBRANCH  92  94
ENDBRANCH  65  92
BRANCH  66 101
ATOM    101  O3  SGN d 503     -13.386  48.422 171.167  0.00  0.00    -0.391 OA
ATOM    102  H   SGN d 503     -13.541  49.284 171.583  0.00  0.00     0.210 HD
ENDBRANCH  66 101
ENDBRANCH  60  61
ENDBRANCH   3  60
TORSDOF 40
ENDMDL
MODEL 15
REMARK VINA RESULT:      -3.7      4.926      8.786
REMARK WARNING: 32 MAX_TORS EXCEEDED!!!
REMARK  40 active torsions:
REMARK  status: ('A' for Active; 'I' for Inactive)
REMARK    1 I    between atoms: C6_1  and  C5_8 
REMARK    2 I    between atoms: C6_1  and  O6_57 
REMARK    3 I    between atoms: O4_2  and  C4_49 
REMARK    4 I    between atoms: O6_3  and  C6_7 
REMARK    5 I    between atoms: O6_3  and  S2_58 
REMARK    6 I    between atoms: S_4  and  O2_6 
REMARK    7 I    between atoms: O3_5  and  C3_81 
REMARK    8 I    between atoms: O2_6  and  C2_11 
REMARK    9 I    between atoms: C6_7  and  C5_54 
REMARK   10 I    between atoms: O4_9  and  C4_32 
REMARK   11 I    between atoms: O4_9  and  C1_39 
REMARK   12 I    between atoms: O3_12  and  C3_18 
REMARK   13 I    between atoms: N_13  and  C2_52 
REMARK   14 I    between atoms: N_13  and  S1_45 
REMARK   15 I    between atoms: O3_17  and  C3_83 
REMARK   16 I    between atoms: C4_20  and  O4_44 
REMARK   17 I    between atoms: N_21  and  C2_66 
REMARK   18 I    between atoms: N_21  and  S1_53 
REMARK   19 I    between atoms: O3_22  and  C3_65 
REMARK   20 I    between atoms: C4_23  and  O4_74 
REMARK   21 I    between atoms: C1_25  and  O1_72 
REMARK   22 I    between atoms: C2_28  and  O2_69 
REMARK   23 I    between atoms: C4_33  and  O4_61 
REMARK   24 I    between atoms: O2S_34  and  S1_45 
REMARK   25 I    between atoms: C6_37  and  C5_47 
REMARK   26 I    between atoms: O2_38  and  C2_77 
REMARK   27 I    between atoms: O2_38  and  S_50 
REMARK   28 I    between atoms: O3S_40  and  S1_53 
REMARK   29 I    between atoms: O1S_42  and  S1_45 
REMARK   30 I    between atoms: O1S_43  and  S1_53 
REMARK   31 I    between atoms: O4_44  and  C1_46 
REMARK   32 I    between atoms: S1_45  and  O3S_60 
REMARK   33 I    between atoms: C6_48  and  C5_84 
REMARK   34 I    between atoms: C6_51  and  C5_87 
REMARK   35 I    between atoms: S1_53  and  O2S_55 
REMARK   36 I    between atoms: C1_56  and  O4_74 
REMARK   37 I    between atoms: O6_57  and  S2_82 
REMARK   38 I    between atoms: O4_61  and  C1_70 
REMARK   39 I    between atoms: C3_63  and  O3_79 
REMARK   40 I    between atoms: O2_69  and  S_76 
ROOT
ATOM      1  C3  IDS d 504     -18.045  52.251 176.384  0.00  0.00     0.185 C 
ATOM      2  C4  IDS d 504     -16.674  51.667 176.687  0.00  0.00     0.195 C 
ATOM      3  C1  IDS d 504     -18.406  50.259 174.799  0.00  0.00     0.294 C 
ATOM      4  O5  IDS d 504     -17.083  49.850 175.162  0.00  0.00    -0.340 OA
ATOM      5  C2  IDS d 504     -18.600  51.749 174.995  0.00  0.00     0.231 C 
ATOM      6  C5  IDS d 504     -16.727  50.153 176.492  0.00  0.00     0.257 C 
ENDROOT
BRANCH   2   7
ATOM      7  O4  IDS d 504     -15.715  52.240 175.812  0.00  0.00    -0.348 OA
BRANCH   7   8
ATOM      8  C1  SGN d 505     -14.805  53.096 176.449  0.00  0.00     0.282 C 
ATOM      9  O5  SGN d 505     -13.702  52.374 176.917  0.00  0.00    -0.349 OA
ATOM     10  C5  SGN d 505     -12.941  51.791 175.903  0.00  0.00     0.181 C 
ATOM     11  C4  SGN d 505     -12.320  52.847 175.047  0.00  0.00     0.186 C 
ATOM     12  C3  SGN d 505     -13.491  53.614 174.367  0.00  0.00     0.173 C 
ATOM     13  C2  SGN d 505     -14.332  54.196 175.520  0.00  0.00     0.157 C 
BRANCH  10  14
ATOM     14  C6  SGN d 505     -11.929  50.927 176.583  0.00  0.00     0.227 C 
BRANCH  14  15
ATOM     15  O6  SGN d 505     -11.877  49.766 175.826  0.00  0.00    -0.254 OA
BRANCH  15  16
ATOM     16  S2  SGN d 505     -11.161  48.469 176.177  0.00  0.00     0.251 S 
ATOM     17  O5S SGN d 505     -11.801  48.020 177.389  0.00  0.00    -0.572 OA
ATOM     18  O4S SGN d 505      -9.775  48.846 176.335  0.00  0.00    -0.572 OA
ATOM     19  O6S SGN d 505     -11.372  47.555 175.063  0.00  0.00    -0.572 OA
ENDBRANCH  15  16
ENDBRANCH  14  15
ENDBRANCH  10  14
BRANCH  11  20
ATOM     20  O4  SGN d 505     -11.447  52.166 174.170  0.00  0.00    -0.348 OA
BRANCH  20  21
ATOM     21  C1  IDS d 506     -10.079  52.391 174.121  0.00  0.00     0.294 C 
ATOM     22  C2  IDS d 506      -9.471  51.518 173.014  0.00  0.00     0.231 C 
ATOM     23  C3  IDS d 506      -7.922  51.426 173.085  0.00  0.00     0.185 C 
ATOM     24  C4  IDS d 506      -7.369  51.362 174.524  0.00  0.00     0.189 C 
ATOM     25  C5  IDS d 506      -8.171  52.277 175.455  0.00  0.00     0.256 C 
ATOM     26  O5  IDS d 506      -9.527  51.993 175.351  0.00  0.00    -0.340 OA
BRANCH  22  27
ATOM     27  O2  IDS d 506      -9.965  50.197 173.109  0.00  0.00    -0.244 OA
BRANCH  27  28
ATOM     28  S   IDS d 506      -9.774  48.998 172.084  0.00  0.00     0.252 S 
ATOM     29  O1S IDS d 506     -11.066  48.395 171.972  0.00  0.00    -0.572 OA
ATOM     30  O2S IDS d 506      -9.351  49.549 170.827  0.00  0.00    -0.572 OA
ATOM     31  O3S IDS d 506      -8.788  48.127 172.686  0.00  0.00    -0.572 OA
ENDBRANCH  27  28
ENDBRANCH  22  27
BRANCH  23  32
ATOM     32  O3  IDS d 506      -7.370  52.570 172.438  0.00  0.00    -0.390 OA
ATOM     33  H   IDS d 506      -6.681  52.288 171.815  0.00  0.00     0.210 HD
ENDBRANCH  23  32
BRANCH  24  34
ATOM     34  O4  IDS d 506      -7.482  50.026 174.957  0.00  0.00    -0.390 OA
ATOM     35  H   IDS d 506      -8.418  49.806 175.086  0.00  0.00     0.210 HD
ENDBRANCH  24  34
BRANCH  25  36
ATOM     36  C6  IDS d 506      -7.768  52.279 176.918  0.00  0.00     0.206 C 
ATOM     37  O62 IDS d 506      -8.344  52.963 177.746  0.00  0.00    -0.646 OA
ATOM     38  O61 IDS d 506      -6.849  51.568 177.300  0.00  0.00    -0.646 OA
ENDBRANCH  25  36
ENDBRANCH  20  21
ENDBRANCH  11  20
BRANCH  12  39
ATOM     39  O3  SGN d 505     -12.993  54.690 173.583  0.00  0.00    -0.391 OA
ATOM     40  H   SGN d 505     -12.460  55.278 174.141  0.00  0.00     0.210 HD
ENDBRANCH  12  39
BRANCH  13  41
ATOM     41  N   SGN d 505     -15.491  55.020 175.105  0.00  0.00    -0.210 NA
ATOM     42  H   SGN d 505     -16.262  54.383 174.904  0.00  0.00     0.140 HD
BRANCH  41  43
ATOM     43  S1  SGN d 505     -16.056  56.164 176.192  0.00  0.00     0.156 S 
BRANCH  43  44
ATOM     44  O3S SGN d 505     -15.163  56.162 177.296  0.00  0.00    -0.296 OA
ATOM     45  H   SGN d 505     -15.438  55.484 177.933  0.00  0.00     0.231 HD
ENDBRANCH  43  44
BRANCH  43  46
ATOM     46  O1S SGN d 505     -16.102  57.437 175.504  0.00  0.00    -0.296 OA
ATOM     47  H   SGN d 505     -15.850  57.311 174.576  0.00  0.00     0.231 HD
ENDBRANCH  43  46
BRANCH  43  48
ATOM     48  O2S SGN d 505     -17.367  55.696 176.576  0.00  0.00    -0.296 OA
ATOM     49  H   SGN d 505     -17.582  54.891 176.080  0.00  0.00     0.231 HD
ENDBRANCH  43  48
ENDBRANCH  41  43
ENDBRANCH  13  41
ENDBRANCH   7   8
ENDBRANCH   2   7
BRANCH   1  50
ATOM     50  O3  IDS d 504     -18.918  51.833 177.426  0.00  0.00    -0.390 OA
ATOM     51  H   IDS d 504     -18.549  52.099 178.283  0.00  0.00     0.210 HD
ENDBRANCH   1  50
BRANCH   6  52
ATOM     52  C6  IDS d 504     -15.447  49.398 176.890  0.00  0.00     0.206 C 
ATOM     53  O62 IDS d 504     -14.987  49.483 178.031  0.00  0.00    -0.646 OA
ATOM     54  O61 IDS d 504     -14.844  48.709 176.078  0.00  0.00    -0.646 OA
ENDBRANCH   6  52
BRANCH   5  55
ATOM     55  O2  IDS d 504     -17.952  52.431 173.923  0.00  0.00    -0.244 OA
BRANCH  55  56
ATOM     56  S   IDS d 504     -18.536  53.574 173.073  0.00  0.00     0.252 S 
ATOM     57  O2S IDS d 504     -19.913  53.266 172.820  0.00  0.00    -0.572 OA
ATOM     58  O3S IDS d 504     -18.319  54.725 173.867  0.00  0.00    -0.572 OA
ATOM     59  O1S IDS d 504     -17.780  53.607 171.875  0.00  0.00    -0.572 OA
ENDBRANCH  55  56
ENDBRANCH   5  55
BRANCH   3  60
ATOM     60  O4  SGN d 503     -19.393  49.588 175.527  0.00  0.00    -0.348 OA
BRANCH  60  61
ATOM     61  C4  SGN d 503     -19.559  48.256 175.162  0.00  0.00     0.186 C 
ATOM     62  C5  SGN d 503     -20.899  48.111 174.421  0.00  0.00     0.181 C 
ATOM     63  O5  SGN d 503     -21.165  46.775 174.125  0.00  0.00    -0.349 OA
ATOM     64  C1  SGN d 503     -21.281  45.963 175.267  0.00  0.00     0.282 C 
ATOM     65  C2  SGN d 503     -19.962  45.989 176.051  0.00  0.00     0.157 C 
ATOM     66  C3  SGN d 503     -19.563  47.404 176.429  0.00  0.00     0.173 C 
BRANCH  62  67
ATOM     67  C6  SGN d 503     -20.954  48.812 173.091  0.00  0.00     0.227 C 
BRANCH  67  68
ATOM     68  O6  SGN d 503     -20.513  47.898 172.110  0.00  0.00    -0.254 OA
BRANCH  68  69
ATOM     69  S2  SGN d 503     -19.607  48.242 170.899  0.00  0.00     0.251 S 
ATOM     70  O6S SGN d 503     -20.496  48.814 169.965  0.00  0.00    -0.572 OA
ATOM     71  O4S SGN d 503     -18.648  49.207 171.317  0.00  0.00    -0.572 OA
ATOM     72  O5S SGN d 503     -18.976  46.997 170.470  0.00  0.00    -0.572 OA
ENDBRANCH  68  69
ENDBRANCH  67  68
ENDBRANCH  62  67
BRANCH  64  73
ATOM     73  O4  IDS d 502     -22.353  46.365 176.075  0.00  0.00    -0.348 OA
BRANCH  73  74
ATOM     74  C4  IDS d 502     -23.624  46.063 175.561  0.00  0.00     0.195 C 
ATOM     75  C3  IDS d 502     -24.069  44.676 176.062  0.00  0.00     0.185 C 
ATOM     76  C2  IDS d 502     -24.374  44.708 177.563  0.00  0.00     0.231 C 
ATOM     77  C1  IDS d 502     -25.274  45.882 177.935  0.00  0.00     0.291 C 
ATOM     78  O5  IDS d 502     -24.773  47.092 177.424  0.00  0.00    -0.340 OA
ATOM     79  C5  IDS d 502     -24.623  47.124 176.019  0.00  0.00     0.257 C 
BRANCH  75  80
ATOM     80  O3  IDS d 502     -25.250  44.298 175.382  0.00  0.00    -0.390 OA
ATOM     81  H   IDS d 502     -25.483  43.388 175.622  0.00  0.00     0.210 HD
ENDBRANCH  75  80
BRANCH  76  82
ATOM     82  O2  IDS d 502     -23.153  44.866 178.234  0.00  0.00    -0.244 OA
BRANCH  82  83
ATOM     83  S   IDS d 502     -22.591  44.008 179.415  0.00  0.00     0.252 S 
ATOM     84  O3S IDS d 502     -23.678  43.922 180.356  0.00  0.00    -0.572 OA
ATOM     85  O2S IDS d 502     -21.443  44.728 179.915  0.00  0.00    -0.572 OA
ATOM     86  O1S IDS d 502     -22.238  42.723 178.879  0.00  0.00    -0.572 OA
ENDBRANCH  82  83
ENDBRANCH  76  82
BRANCH  77  87
ATOM     87  O1  IDS d 502     -26.568  45.597 177.476  0.00  0.00    -0.368 OA
ATOM     88  H   IDS d 502     -26.533  45.365 176.534  0.00  0.00     0.212 HD
ENDBRANCH  77  87
BRANCH  79  89
ATOM     89  C6  IDS d 502     -24.297  48.534 175.545  0.00  0.00     0.206 C 
ATOM     90  O61 IDS d 502     -23.896  49.376 176.311  0.00  0.00    -0.646 OA
ATOM     91  O62 IDS d 502     -24.429  48.848 174.377  0.00  0.00    -0.646 OA
ENDBRANCH  79  89
ENDBRANCH  73  74
ENDBRANCH  64  73
BRANCH  65  92
ATOM     92  N   SGN d 503     -20.049  45.133 177.222  0.00  0.00    -0.210 NA
ATOM     93  H   SGN d 503     -21.001  44.770 177.264  0.00  0.00     0.140 HD
BRANCH  92  94
ATOM     94  S1  SGN d 503     -19.039  43.860 177.300  0.00  0.00     0.156 S 
BRANCH  94  95
ATOM     95  O2S SGN d 503     -19.348  42.962 176.188  0.00  0.00    -0.296 OA
ATOM     96  H   SGN d 503     -20.183  42.502 176.367  0.00  0.00     0.231 HD
ENDBRANCH  94  95
BRANCH  94  97
ATOM     97  O1S SGN d 503     -19.277  43.234 178.587  0.00  0.00    -0.296 OA
ATOM     98  H   SGN d 503     -18.950  43.812 179.293  0.00  0.00     0.231 HD
ENDBRANCH  94  97
BRANCH  94  99
ATOM     99  O3S SGN d 503     -17.731  44.468 177.215  0.00  0.00    -0.296 OA
ATOM    100  H   SGN d 503     -17.135  44.044 177.851  0.00  0.00     0.231 HD
ENDBRANCH  94  99
ENDBRANCH  92  94
ENDBRANCH  65  92
BRANCH  66 101
ATOM    101  O3  SGN d 503     -18.254  47.408 176.967  0.00  0.00    -0.391 OA
ATOM    102  H   SGN d 503     -18.278  47.750 177.874  0.00  0.00     0.210 HD
ENDBRANCH  66 101
ENDBRANCH  60  61
ENDBRANCH   3  60
TORSDOF 40
ENDMDL
MODEL 16
REMARK VINA RESULT:      -3.5      4.702      7.066
REMARK WARNING: 32 MAX_TORS EXCEEDED!!!
REMARK  40 active torsions:
REMARK  status: ('A' for Active; 'I' for Inactive)
REMARK    1 I    between atoms: C6_1  and  C5_8 
REMARK    2 I    between atoms: C6_1  and  O6_57 
REMARK    3 I    between atoms: O4_2  and  C4_49 
REMARK    4 I    between atoms: O6_3  and  C6_7 
REMARK    5 I    between atoms: O6_3  and  S2_58 
REMARK    6 I    between atoms: S_4  and  O2_6 
REMARK    7 I    between atoms: O3_5  and  C3_81 
REMARK    8 I    between atoms: O2_6  and  C2_11 
REMARK    9 I    between atoms: C6_7  and  C5_54 
REMARK   10 I    between atoms: O4_9  and  C4_32 
REMARK   11 I    between atoms: O4_9  and  C1_39 
REMARK   12 I    between atoms: O3_12  and  C3_18 
REMARK   13 I    between atoms: N_13  and  C2_52 
REMARK   14 I    between atoms: N_13  and  S1_45 
REMARK   15 I    between atoms: O3_17  and  C3_83 
REMARK   16 I    between atoms: C4_20  and  O4_44 
REMARK   17 I    between atoms: N_21  and  C2_66 
REMARK   18 I    between atoms: N_21  and  S1_53 
REMARK   19 I    between atoms: O3_22  and  C3_65 
REMARK   20 I    between atoms: C4_23  and  O4_74 
REMARK   21 I    between atoms: C1_25  and  O1_72 
REMARK   22 I    between atoms: C2_28  and  O2_69 
REMARK   23 I    between atoms: C4_33  and  O4_61 
REMARK   24 I    between atoms: O2S_34  and  S1_45 
REMARK   25 I    between atoms: C6_37  and  C5_47 
REMARK   26 I    between atoms: O2_38  and  C2_77 
REMARK   27 I    between atoms: O2_38  and  S_50 
REMARK   28 I    between atoms: O3S_40  and  S1_53 
REMARK   29 I    between atoms: O1S_42  and  S1_45 
REMARK   30 I    between atoms: O1S_43  and  S1_53 
REMARK   31 I    between atoms: O4_44  and  C1_46 
REMARK   32 I    between atoms: S1_45  and  O3S_60 
REMARK   33 I    between atoms: C6_48  and  C5_84 
REMARK   34 I    between atoms: C6_51  and  C5_87 
REMARK   35 I    between atoms: S1_53  and  O2S_55 
REMARK   36 I    between atoms: C1_56  and  O4_74 
REMARK   37 I    between atoms: O6_57  and  S2_82 
REMARK   38 I    between atoms: O4_61  and  C1_70 
REMARK   39 I    between atoms: C3_63  and  O3_79 
REMARK   40 I    between atoms: O2_69  and  S_76 
ROOT
ATOM      1  C3  IDS d 504     -13.643  48.189 175.978  0.00  0.00     0.185 C 
ATOM      2  C4  IDS d 504     -13.023  47.130 175.079  0.00  0.00     0.195 C 
ATOM      3  C1  IDS d 504     -15.174  48.792 174.002  0.00  0.00     0.294 C 
ATOM      4  O5  IDS d 504     -14.476  47.778 173.272  0.00  0.00    -0.340 OA
ATOM      5  C2  IDS d 504     -14.334  49.334 175.141  0.00  0.00     0.231 C 
ATOM      6  C5  IDS d 504     -14.062  46.680 174.054  0.00  0.00     0.257 C 
ENDROOT
BRANCH   2   7
ATOM      7  O4  IDS d 504     -11.891  47.678 174.420  0.00  0.00    -0.348 OA
BRANCH   7   8
ATOM      8  C1  SGN d 505     -10.700  47.563 175.149  0.00  0.00     0.282 C 
ATOM      9  O5  SGN d 505     -10.186  46.265 175.044  0.00  0.00    -0.349 OA
ATOM     10  C5  SGN d 505      -9.807  45.914 173.748  0.00  0.00     0.181 C 
ATOM     11  C4  SGN d 505      -8.670  46.769 173.290  0.00  0.00     0.186 C 
ATOM     12  C3  SGN d 505      -9.204  48.230 173.239  0.00  0.00     0.173 C 
ATOM     13  C2  SGN d 505      -9.658  48.557 174.675  0.00  0.00     0.157 C 
BRANCH  10  14
ATOM     14  C6  SGN d 505      -9.460  44.462 173.792  0.00  0.00     0.227 C 
BRANCH  14  15
ATOM     15  O6  SGN d 505      -9.288  44.170 175.137  0.00  0.00    -0.254 OA
BRANCH  15  16
ATOM     16  S2  SGN d 505      -8.020  43.676 175.818  0.00  0.00     0.251 S 
ATOM     17  O5S SGN d 505      -8.448  43.282 177.137  0.00  0.00    -0.572 OA
ATOM     18  O4S SGN d 505      -7.125  44.810 175.793  0.00  0.00    -0.572 OA
ATOM     19  O6S SGN d 505      -7.527  42.553 175.033  0.00  0.00    -0.572 OA
ENDBRANCH  15  16
ENDBRANCH  14  15
ENDBRANCH  10  14
BRANCH  11  20
ATOM     20  O4  SGN d 505      -8.257  46.228 172.052  0.00  0.00    -0.348 OA
BRANCH  20  21
ATOM     21  C1  IDS d 506      -6.929  46.125 171.666  0.00  0.00     0.294 C 
ATOM     22  C2  IDS d 506      -6.865  45.473 170.277  0.00  0.00     0.231 C 
ATOM     23  C3  IDS d 506      -5.438  44.998 169.885  0.00  0.00     0.185 C 
ATOM     24  C4  IDS d 506      -4.634  44.409 171.064  0.00  0.00     0.189 C 
ATOM     25  C5  IDS d 506      -4.904  45.196 172.351  0.00  0.00     0.256 C 
ATOM     26  O5  IDS d 506      -6.272  45.283 172.580  0.00  0.00    -0.340 OA
BRANCH  22  27
ATOM     27  O2  IDS d 506      -7.702  44.334 170.235  0.00  0.00    -0.244 OA
BRANCH  27  28
ATOM     28  S   IDS d 506      -7.968  43.353 169.014  0.00  0.00     0.252 S 
ATOM     29  O1S IDS d 506      -7.194  42.185 169.300  0.00  0.00    -0.572 OA
ATOM     30  O2S IDS d 506      -9.371  43.048 168.984  0.00  0.00    -0.572 OA
ATOM     31  O3S IDS d 506      -7.514  44.065 167.839  0.00  0.00    -0.572 OA
ENDBRANCH  27  28
ENDBRANCH  22  27
BRANCH  23  32
ATOM     32  O3  IDS d 506      -4.720  46.110 169.358  0.00  0.00    -0.390 OA
ATOM     33  H   IDS d 506      -4.752  46.846 169.990  0.00  0.00     0.210 HD
ENDBRANCH  23  32
BRANCH  24  34
ATOM     34  O4  IDS d 506      -5.050  43.073 171.228  0.00  0.00    -0.390 OA
ATOM     35  H   IDS d 506      -5.781  43.037 171.863  0.00  0.00     0.210 HD
ENDBRANCH  24  34
BRANCH  25  36
ATOM     36  C6  IDS d 506      -4.214  44.698 173.608  0.00  0.00     0.206 C 
ATOM     37  O62 IDS d 506      -3.377  45.363 174.192  0.00  0.00    -0.646 OA
ATOM     38  O61 IDS d 506      -4.505  43.605 174.073  0.00  0.00    -0.646 OA
ENDBRANCH  25  36
ENDBRANCH  20  21
ENDBRANCH  11  20
BRANCH  12  39
ATOM     39  O3  SGN d 505      -8.163  49.129 172.879  0.00  0.00    -0.391 OA
ATOM     40  H   SGN d 505      -7.824  49.568 173.676  0.00  0.00     0.210 HD
ENDBRANCH  12  39
BRANCH  13  41
ATOM     41  N   SGN d 505     -10.166  49.933 174.881  0.00  0.00    -0.210 NA
ATOM     42  H   SGN d 505     -11.082  49.858 175.324  0.00  0.00     0.140 HD
BRANCH  41  43
ATOM     43  S1  SGN d 505      -9.239  50.968 175.819  0.00  0.00     0.156 S 
BRANCH  43  44
ATOM     44  O3S SGN d 505      -8.273  51.553 174.959  0.00  0.00    -0.296 OA
ATOM     45  H   SGN d 505      -8.673  52.298 174.483  0.00  0.00     0.231 HD
ENDBRANCH  43  44
BRANCH  43  46
ATOM     46  O1S SGN d 505     -10.133  51.941 176.411  0.00  0.00    -0.296 OA
ATOM     47  H   SGN d 505      -9.862  52.115 177.325  0.00  0.00     0.231 HD
ENDBRANCH  43  46
BRANCH  43  48
ATOM     48  O2S SGN d 505      -8.617  50.118 176.807  0.00  0.00    -0.296 OA
ATOM     49  H   SGN d 505      -7.985  50.637 177.329  0.00  0.00     0.231 HD
ENDBRANCH  43  48
ENDBRANCH  41  43
ENDBRANCH  13  41
ENDBRANCH   7   8
ENDBRANCH   2   7
BRANCH   1  50
ATOM     50  O3  IDS d 504     -14.614  47.536 176.786  0.00  0.00    -0.390 OA
ATOM     51  H   IDS d 504     -14.259  47.413 177.681  0.00  0.00     0.210 HD
ENDBRANCH   1  50
BRANCH   6  52
ATOM     52  C6  IDS d 504     -13.628  45.512 173.154  0.00  0.00     0.206 C 
ATOM     53  O62 IDS d 504     -13.933  45.479 171.960  0.00  0.00    -0.646 OA
ATOM     54  O61 IDS d 504     -12.982  44.575 173.606  0.00  0.00    -0.646 OA
ENDBRANCH   6  52
BRANCH   5  55
ATOM     55  O2  IDS d 504     -13.354  50.215 174.596  0.00  0.00    -0.244 OA
BRANCH  55  56
ATOM     56  S   IDS d 504     -13.280  51.740 174.787  0.00  0.00     0.252 S 
ATOM     57  O2S IDS d 504     -14.464  52.307 174.210  0.00  0.00    -0.572 OA
ATOM     58  O3S IDS d 504     -13.168  51.896 176.189  0.00  0.00    -0.572 OA
ATOM     59  O1S IDS d 504     -12.112  52.172 174.111  0.00  0.00    -0.572 OA
ENDBRANCH  55  56
ENDBRANCH   5  55
BRANCH   3  60
ATOM     60  O4  SGN d 503     -16.386  48.334 174.528  0.00  0.00    -0.348 OA
BRANCH  60  61
ATOM     61  C4  SGN d 503     -17.442  48.361 173.624  0.00  0.00     0.186 C 
ATOM     62  C5  SGN d 503     -18.588  49.192 174.227  0.00  0.00     0.181 C 
ATOM     63  O5  SGN d 503     -19.713  49.164 173.406  0.00  0.00    -0.349 OA
ATOM     64  C1  SGN d 503     -20.243  47.873 173.230  0.00  0.00     0.282 C 
ATOM     65  C2  SGN d 503     -19.190  46.972 172.570  0.00  0.00     0.157 C 
ATOM     66  C3  SGN d 503     -17.906  46.927 173.378  0.00  0.00     0.173 C 
BRANCH  62  67
ATOM     67  C6  SGN d 503     -18.275  50.655 174.391  0.00  0.00     0.227 C 
BRANCH  67  68
ATOM     68  O6  SGN d 503     -18.628  51.020 175.708  0.00  0.00    -0.254 OA
BRANCH  68  69
ATOM     69  S2  SGN d 503     -17.740  51.831 176.689  0.00  0.00     0.251 S 
ATOM     70  O6S SGN d 503     -17.269  52.906 175.905  0.00  0.00    -0.572 OA
ATOM     71  O4S SGN d 503     -18.565  52.317 177.741  0.00  0.00    -0.572 OA
ATOM     72  O5S SGN d 503     -16.707  50.924 177.180  0.00  0.00    -0.572 OA
ENDBRANCH  68  69
ENDBRANCH  67  68
ENDBRANCH  62  67
BRANCH  64  73
ATOM     73  O4  IDS d 502     -20.678  47.328 174.446  0.00  0.00    -0.348 OA
BRANCH  73  74
ATOM     74  C4  IDS d 502     -21.838  47.918 174.974  0.00  0.00     0.195 C 
ATOM     75  C3  IDS d 502     -23.083  47.289 174.320  0.00  0.00     0.185 C 
ATOM     76  C2  IDS d 502     -23.271  45.841 174.782  0.00  0.00     0.231 C 
ATOM     77  C1  IDS d 502     -23.163  45.708 176.298  0.00  0.00     0.291 C 
ATOM     78  O5  IDS d 502     -21.993  46.320 176.782  0.00  0.00    -0.340 OA
ATOM     79  C5  IDS d 502     -21.878  47.697 176.484  0.00  0.00     0.257 C 
BRANCH  75  80
ATOM     80  O3  IDS d 502     -24.227  48.025 174.707  0.00  0.00    -0.390 OA
ATOM     81  H   IDS d 502     -24.867  48.033 173.978  0.00  0.00     0.210 HD
ENDBRANCH  75  80
BRANCH  76  82
ATOM     82  O2  IDS d 502     -22.242  45.082 174.205  0.00  0.00    -0.244 OA
BRANCH  82  83
ATOM     83  S   IDS d 502     -22.371  43.737 173.416  0.00  0.00     0.252 S 
ATOM     84  O3S IDS d 502     -22.672  44.132 172.064  0.00  0.00    -0.572 OA
ATOM     85  O2S IDS d 502     -23.435  43.003 174.059  0.00  0.00    -0.572 OA
ATOM     86  O1S IDS d 502     -21.106  43.064 173.513  0.00  0.00    -0.572 OA
ENDBRANCH  82  83
ENDBRANCH  76  82
BRANCH  77  87
ATOM     87  O1  IDS d 502     -24.328  46.249 176.862  0.00  0.00    -0.368 OA
ATOM     88  H   IDS d 502     -24.957  46.469 176.157  0.00  0.00     0.212 HD
ENDBRANCH  77  87
BRANCH  79  89
ATOM     89  C6  IDS d 502     -20.707  48.314 177.237  0.00  0.00     0.206 C 
ATOM     90  O61 IDS d 502     -19.749  47.653 177.555  0.00  0.00    -0.646 OA
ATOM     91  O62 IDS d 502     -20.705  49.493 177.533  0.00  0.00    -0.646 OA
ENDBRANCH  79  89
ENDBRANCH  73  74
ENDBRANCH  64  73
BRANCH  65  92
ATOM     92  N   SGN d 503     -19.725  45.639 172.353  0.00  0.00    -0.210 NA
ATOM     93  H   SGN d 503     -20.737  45.728 172.259  0.00  0.00     0.140 HD
BRANCH  92  94
ATOM     94  S1  SGN d 503     -19.187  44.814 171.057  0.00  0.00     0.156 S 
BRANCH  94  95
ATOM     95  O2S SGN d 503     -18.187  43.850 171.514  0.00  0.00    -0.296 OA
ATOM     96  H   SGN d 503     -17.624  44.263 172.187  0.00  0.00     0.231 HD
ENDBRANCH  94  95
BRANCH  94  97
ATOM     97  O1S SGN d 503     -18.622  45.799 170.155  0.00  0.00    -0.296 OA
ATOM     98  H   SGN d 503     -18.204  46.506 170.671  0.00  0.00     0.231 HD
ENDBRANCH  94  97
BRANCH  94  99
ATOM     99  O3S SGN d 503     -20.388  44.205 170.531  0.00  0.00    -0.296 OA
ATOM    100  H   SGN d 503     -20.908  43.832 171.259  0.00  0.00     0.231 HD
ENDBRANCH  94  99
ENDBRANCH  92  94
ENDBRANCH  65  92
BRANCH  66 101
ATOM    101  O3  SGN d 503     -16.898  46.258 172.645  0.00  0.00    -0.391 OA
ATOM    102  H   SGN d 503     -16.262  46.905 172.304  0.00  0.00     0.210 HD
ENDBRANCH  66 101
ENDBRANCH  60  61
ENDBRANCH   3  60
TORSDOF 40
ENDMDL
MODEL 17
REMARK VINA RESULT:      -3.5      3.144     13.638
REMARK WARNING: 32 MAX_TORS EXCEEDED!!!
REMARK  40 active torsions:
REMARK  status: ('A' for Active; 'I' for Inactive)
REMARK    1 I    between atoms: C6_1  and  C5_8 
REMARK    2 I    between atoms: C6_1  and  O6_57 
REMARK    3 I    between atoms: O4_2  and  C4_49 
REMARK    4 I    between atoms: O6_3  and  C6_7 
REMARK    5 I    between atoms: O6_3  and  S2_58 
REMARK    6 I    between atoms: S_4  and  O2_6 
REMARK    7 I    between atoms: O3_5  and  C3_81 
REMARK    8 I    between atoms: O2_6  and  C2_11 
REMARK    9 I    between atoms: C6_7  and  C5_54 
REMARK   10 I    between atoms: O4_9  and  C4_32 
REMARK   11 I    between atoms: O4_9  and  C1_39 
REMARK   12 I    between atoms: O3_12  and  C3_18 
REMARK   13 I    between atoms: N_13  and  C2_52 
REMARK   14 I    between atoms: N_13  and  S1_45 
REMARK   15 I    between atoms: O3_17  and  C3_83 
REMARK   16 I    between atoms: C4_20  and  O4_44 
REMARK   17 I    between atoms: N_21  and  C2_66 
REMARK   18 I    between atoms: N_21  and  S1_53 
REMARK   19 I    between atoms: O3_22  and  C3_65 
REMARK   20 I    between atoms: C4_23  and  O4_74 
REMARK   21 I    between atoms: C1_25  and  O1_72 
REMARK   22 I    between atoms: C2_28  and  O2_69 
REMARK   23 I    between atoms: C4_33  and  O4_61 
REMARK   24 I    between atoms: O2S_34  and  S1_45 
REMARK   25 I    between atoms: C6_37  and  C5_47 
REMARK   26 I    between atoms: O2_38  and  C2_77 
REMARK   27 I    between atoms: O2_38  and  S_50 
REMARK   28 I    between atoms: O3S_40  and  S1_53 
REMARK   29 I    between atoms: O1S_42  and  S1_45 
REMARK   30 I    between atoms: O1S_43  and  S1_53 
REMARK   31 I    between atoms: O4_44  and  C1_46 
REMARK   32 I    between atoms: S1_45  and  O3S_60 
REMARK   33 I    between atoms: C6_48  and  C5_84 
REMARK   34 I    between atoms: C6_51  and  C5_87 
REMARK   35 I    between atoms: S1_53  and  O2S_55 
REMARK   36 I    between atoms: C1_56  and  O4_74 
REMARK   37 I    between atoms: O6_57  and  S2_82 
REMARK   38 I    between atoms: O4_61  and  C1_70 
REMARK   39 I    between atoms: C3_63  and  O3_79 
REMARK   40 I    between atoms: O2_69  and  S_76 
ROOT
ATOM      1  C3  IDS d 504     -14.082  46.622 173.268  0.00  0.00     0.185 C 
ATOM      2  C4  IDS d 504     -14.238  47.962 173.970  0.00  0.00     0.195 C 
ATOM      3  C1  IDS d 504     -12.250  47.725 171.840  0.00  0.00     0.294 C 
ATOM      4  O5  IDS d 504     -12.532  48.923 172.570  0.00  0.00    -0.340 OA
ATOM      5  C2  IDS d 504     -13.438  46.784 171.837  0.00  0.00     0.231 C 
ATOM      6  C5  IDS d 504     -12.907  48.710 173.912  0.00  0.00     0.257 C 
ENDROOT
BRANCH   2   7
ATOM      7  O4  IDS d 504     -15.252  48.717 173.323  0.00  0.00    -0.348 OA
BRANCH   7   8
ATOM      8  C1  SGN d 505     -16.549  48.418 173.762  0.00  0.00     0.282 C 
ATOM      9  O5  SGN d 505     -16.789  49.007 175.009  0.00  0.00    -0.349 OA
ATOM     10  C5  SGN d 505     -16.769  50.401 174.985  0.00  0.00     0.181 C 
ATOM     11  C4  SGN d 505     -17.887  50.923 174.140  0.00  0.00     0.186 C 
ATOM     12  C3  SGN d 505     -17.616  50.429 172.690  0.00  0.00     0.173 C 
ATOM     13  C2  SGN d 505     -17.595  48.890 172.771  0.00  0.00     0.157 C 
BRANCH  10  14
ATOM     14  C6  SGN d 505     -16.862  50.846 176.408  0.00  0.00     0.227 C 
BRANCH  14  15
ATOM     15  O6  SGN d 505     -15.550  50.920 176.852  0.00  0.00    -0.254 OA
BRANCH  15  16
ATOM     16  S2  SGN d 505     -15.067  51.339 178.232  0.00  0.00     0.251 S 
ATOM     17  O5S SGN d 505     -14.027  52.304 177.974  0.00  0.00    -0.572 OA
ATOM     18  O4S SGN d 505     -14.608  50.115 178.849  0.00  0.00    -0.572 OA
ATOM     19  O6S SGN d 505     -16.209  51.923 178.922  0.00  0.00    -0.572 OA
ENDBRANCH  15  16
ENDBRANCH  14  15
ENDBRANCH  10  14
BRANCH  11  20
ATOM     20  O4  SGN d 505     -17.881  52.324 174.318  0.00  0.00    -0.348 OA
BRANCH  20  21
ATOM     21  C1  IDS d 506     -18.895  53.157 173.871  0.00  0.00     0.294 C 
ATOM     22  C2  IDS d 506     -18.484  54.616 174.115  0.00  0.00     0.231 C 
ATOM     23  C3  IDS d 506     -19.661  55.620 173.972  0.00  0.00     0.185 C 
ATOM     24  C4  IDS d 506     -21.003  55.084 174.514  0.00  0.00     0.189 C 
ATOM     25  C5  IDS d 506     -21.162  53.594 174.192  0.00  0.00     0.256 C 
ATOM     26  O5  IDS d 506     -20.047  52.890 174.630  0.00  0.00    -0.340 OA
BRANCH  22  27
ATOM     27  O2  IDS d 506     -17.975  54.765 175.427  0.00  0.00    -0.244 OA
BRANCH  27  28
ATOM     28  S   IDS d 506     -16.933  55.838 175.962  0.00  0.00     0.252 S 
ATOM     29  O1S IDS d 506     -16.014  55.094 176.768  0.00  0.00    -0.572 OA
ATOM     30  O2S IDS d 506     -16.271  56.421 174.830  0.00  0.00    -0.572 OA
ATOM     31  O3S IDS d 506     -17.713  56.791 176.721  0.00  0.00    -0.572 OA
ENDBRANCH  27  28
ENDBRANCH  22  27
BRANCH  23  32
ATOM     32  O3  IDS d 506     -19.823  55.934 172.592  0.00  0.00    -0.390 OA
ATOM     33  H   IDS d 506     -19.028  55.666 172.104  0.00  0.00     0.210 HD
ENDBRANCH  23  32
BRANCH  24  34
ATOM     34  O4  IDS d 506     -20.995  55.271 175.910  0.00  0.00    -0.390 OA
ATOM     35  H   IDS d 506     -21.902  55.211 176.250  0.00  0.00     0.210 HD
ENDBRANCH  24  34
BRANCH  25  36
ATOM     36  C6  IDS d 506     -22.419  52.919 174.708  0.00  0.00     0.206 C 
ATOM     37  O62 IDS d 506     -23.106  52.204 173.999  0.00  0.00    -0.646 OA
ATOM     38  O61 IDS d 506     -22.761  53.071 175.873  0.00  0.00    -0.646 OA
ENDBRANCH  25  36
ENDBRANCH  20  21
ENDBRANCH  11  20
BRANCH  12  39
ATOM     39  O3  SGN d 505     -18.673  50.820 171.824  0.00  0.00    -0.391 OA
ATOM     40  H   SGN d 505     -18.986  50.049 171.325  0.00  0.00     0.210 HD
ENDBRANCH  12  39
BRANCH  13  41
ATOM     41  N   SGN d 505     -17.398  48.189 171.481  0.00  0.00    -0.210 NA
ATOM     42  H   SGN d 505     -16.625  47.535 171.603  0.00  0.00     0.140 HD
BRANCH  41  43
ATOM     43  S1  SGN d 505     -18.694  47.324 170.864  0.00  0.00     0.156 S 
BRANCH  43  44
ATOM     44  O3S SGN d 505     -18.547  47.308 169.452  0.00  0.00    -0.296 OA
ATOM     45  H   SGN d 505     -17.605  47.350 169.225  0.00  0.00     0.231 HD
ENDBRANCH  43  44
BRANCH  43  46
ATOM     46  O1S SGN d 505     -18.658  46.002 171.452  0.00  0.00    -0.296 OA
ATOM     47  H   SGN d 505     -17.960  45.479 171.028  0.00  0.00     0.231 HD
ENDBRANCH  43  46
BRANCH  43  48
ATOM     48  O2S SGN d 505     -19.864  48.073 171.262  0.00  0.00    -0.296 OA
ATOM     49  H   SGN d 505     -20.034  48.776 170.616  0.00  0.00     0.231 HD
ENDBRANCH  43  48
ENDBRANCH  41  43
ENDBRANCH  13  41
ENDBRANCH   7   8
ENDBRANCH   2   7
BRANCH   1  50
ATOM     50  O3  IDS d 504     -13.238  45.819 174.083  0.00  0.00    -0.390 OA
ATOM     51  H   IDS d 504     -13.747  45.074 174.440  0.00  0.00     0.210 HD
ENDBRANCH   1  50
BRANCH   6  52
ATOM     52  C6  IDS d 504     -12.866  50.031 174.698  0.00  0.00     0.206 C 
ATOM     53  O62 IDS d 504     -12.528  50.057 175.883  0.00  0.00    -0.646 OA
ATOM     54  O61 IDS d 504     -13.185  51.088 174.169  0.00  0.00    -0.646 OA
ENDBRANCH   6  52
BRANCH   5  55
ATOM     55  O2  IDS d 504     -14.401  47.281 170.910  0.00  0.00    -0.244 OA
BRANCH  55  56
ATOM     56  S   IDS d 504     -14.974  46.536 169.691  0.00  0.00     0.252 S 
ATOM     57  O2S IDS d 504     -15.622  47.504 168.856  0.00  0.00    -0.572 OA
ATOM     58  O3S IDS d 504     -13.840  45.916 169.114  0.00  0.00    -0.572 OA
ATOM     59  O1S IDS d 504     -15.895  45.585 170.199  0.00  0.00    -0.572 OA
ENDBRANCH  55  56
ENDBRANCH   5  55
BRANCH   3  60
ATOM     60  O4  SGN d 503     -11.144  47.035 172.347  0.00  0.00    -0.348 OA
BRANCH  60  61
ATOM     61  C4  SGN d 503      -9.951  47.319 171.693  0.00  0.00     0.186 C 
ATOM     62  C5  SGN d 503      -9.126  46.024 171.587  0.00  0.00     0.181 C 
ATOM     63  O5  SGN d 503      -7.872  46.273 171.033  0.00  0.00    -0.349 OA
ATOM     64  C1  SGN d 503      -7.088  47.152 171.799  0.00  0.00     0.282 C 
ATOM     65  C2  SGN d 503      -7.799  48.508 171.913  0.00  0.00     0.157 C 
ATOM     66  C3  SGN d 503      -9.189  48.363 172.505  0.00  0.00     0.173 C 
BRANCH  62  67
ATOM     67  C6  SGN d 503      -9.732  44.971 170.698  0.00  0.00     0.227 C 
BRANCH  67  68
ATOM     68  O6  SGN d 503      -8.847  43.873 170.677  0.00  0.00    -0.254 OA
BRANCH  68  69
ATOM     69  S2  SGN d 503      -8.290  43.187 169.401  0.00  0.00     0.251 S 
ATOM     70  O6S SGN d 503      -9.366  42.394 168.950  0.00  0.00    -0.572 OA
ATOM     71  O4S SGN d 503      -7.992  44.198 168.444  0.00  0.00    -0.572 OA
ATOM     72  O5S SGN d 503      -7.098  42.445 169.800  0.00  0.00    -0.572 OA
ENDBRANCH  68  69
ENDBRANCH  67  68
ENDBRANCH  62  67
BRANCH  64  73
ATOM     73  O4  IDS d 502      -6.814  46.622 173.067  0.00  0.00    -0.348 OA
BRANCH  73  74
ATOM     74  C4  IDS d 502      -5.778  45.675 173.098  0.00  0.00     0.195 C 
ATOM     75  C3  IDS d 502      -4.432  46.388 173.329  0.00  0.00     0.185 C 
ATOM     76  C2  IDS d 502      -4.344  46.945 174.753  0.00  0.00     0.231 C 
ATOM     77  C1  IDS d 502      -4.747  45.907 175.795  0.00  0.00     0.291 C 
ATOM     78  O5  IDS d 502      -5.986  45.322 175.481  0.00  0.00    -0.340 OA
ATOM     79  C5  IDS d 502      -6.035  44.676 174.224  0.00  0.00     0.257 C 
BRANCH  75  80
ATOM     80  O3  IDS d 502      -3.382  45.456 173.157  0.00  0.00    -0.390 OA
ATOM     81  H   IDS d 502      -2.912  45.647 172.330  0.00  0.00     0.210 HD
ENDBRANCH  75  80
BRANCH  76  82
ATOM     82  O2  IDS d 502      -5.243  48.018 174.837  0.00  0.00    -0.244 OA
BRANCH  82  83
ATOM     83  S   IDS d 502      -4.946  49.482 175.301  0.00  0.00     0.252 S 
ATOM     84  O3S IDS d 502      -4.143  49.335 176.488  0.00  0.00    -0.572 OA
ATOM     85  O2S IDS d 502      -6.235  50.088 175.542  0.00  0.00    -0.572 OA
ATOM     86  O1S IDS d 502      -4.228  50.129 174.239  0.00  0.00    -0.572 OA
ENDBRANCH  82  83
ENDBRANCH  76  82
BRANCH  77  87
ATOM     87  O1  IDS d 502      -3.713  44.964 175.888  0.00  0.00    -0.368 OA
ATOM     88  H   IDS d 502      -2.995  45.211 175.284  0.00  0.00     0.212 HD
ENDBRANCH  77  87
BRANCH  79  89
ATOM     89  C6  IDS d 502      -7.328  43.886 174.075  0.00  0.00     0.206 C 
ATOM     90  O61 IDS d 502      -7.390  42.917 173.358  0.00  0.00    -0.646 OA
ATOM     91  O62 IDS d 502      -8.332  44.208 174.680  0.00  0.00    -0.646 OA
ENDBRANCH  79  89
ENDBRANCH  73  74
ENDBRANCH  64  73
BRANCH  65  92
ATOM     92  N   SGN d 503      -6.993  49.443 172.678  0.00  0.00    -0.210 NA
ATOM     93  H   SGN d 503      -6.133  48.960 172.942  0.00  0.00     0.140 HD
BRANCH  92  94
ATOM     94  S1  SGN d 503      -6.566  50.837 171.956  0.00  0.00     0.156 S 
BRANCH  94  95
ATOM     95  O2S SGN d 503      -6.451  51.868 172.985  0.00  0.00    -0.296 OA
ATOM     96  H   SGN d 503      -5.992  51.503 173.758  0.00  0.00     0.231 HD
ENDBRANCH  94  95
BRANCH  94  97
ATOM     97  O1S SGN d 503      -7.616  51.135 171.000  0.00  0.00    -0.296 OA
ATOM     98  H   SGN d 503      -8.004  52.000 171.207  0.00  0.00     0.231 HD
ENDBRANCH  94  97
BRANCH  94  99
ATOM     99  O3S SGN d 503      -5.312  50.508 171.315  0.00  0.00    -0.296 OA
ATOM    100  H   SGN d 503      -5.488  50.079 170.463  0.00  0.00     0.231 HD
ENDBRANCH  94  99
ENDBRANCH  92  94
ENDBRANCH  65  92
BRANCH  66 101
ATOM    101  O3  SGN d 503      -9.885  49.591 172.408  0.00  0.00    -0.391 OA
ATOM    102  H   SGN d 503     -10.498  49.556 171.658  0.00  0.00     0.210 HD
ENDBRANCH  66 101
ENDBRANCH  60  61
ENDBRANCH   3  60
TORSDOF 40
ENDMDL
MODEL 18
REMARK VINA RESULT:      -3.4      2.856     13.050
REMARK WARNING: 32 MAX_TORS EXCEEDED!!!
REMARK  40 active torsions:
REMARK  status: ('A' for Active; 'I' for Inactive)
REMARK    1 I    between atoms: C6_1  and  C5_8 
REMARK    2 I    between atoms: C6_1  and  O6_57 
REMARK    3 I    between atoms: O4_2  and  C4_49 
REMARK    4 I    between atoms: O6_3  and  C6_7 
REMARK    5 I    between atoms: O6_3  and  S2_58 
REMARK    6 I    between atoms: S_4  and  O2_6 
REMARK    7 I    between atoms: O3_5  and  C3_81 
REMARK    8 I    between atoms: O2_6  and  C2_11 
REMARK    9 I    between atoms: C6_7  and  C5_54 
REMARK   10 I    between atoms: O4_9  and  C4_32 
REMARK   11 I    between atoms: O4_9  and  C1_39 
REMARK   12 I    between atoms: O3_12  and  C3_18 
REMARK   13 I    between atoms: N_13  and  C2_52 
REMARK   14 I    between atoms: N_13  and  S1_45 
REMARK   15 I    between atoms: O3_17  and  C3_83 
REMARK   16 I    between atoms: C4_20  and  O4_44 
REMARK   17 I    between atoms: N_21  and  C2_66 
REMARK   18 I    between atoms: N_21  and  S1_53 
REMARK   19 I    between atoms: O3_22  and  C3_65 
REMARK   20 I    between atoms: C4_23  and  O4_74 
REMARK   21 I    between atoms: C1_25  and  O1_72 
REMARK   22 I    between atoms: C2_28  and  O2_69 
REMARK   23 I    between atoms: C4_33  and  O4_61 
REMARK   24 I    between atoms: O2S_34  and  S1_45 
REMARK   25 I    between atoms: C6_37  and  C5_47 
REMARK   26 I    between atoms: O2_38  and  C2_77 
REMARK   27 I    between atoms: O2_38  and  S_50 
REMARK   28 I    between atoms: O3S_40  and  S1_53 
REMARK   29 I    between atoms: O1S_42  and  S1_45 
REMARK   30 I    between atoms: O1S_43  and  S1_53 
REMARK   31 I    between atoms: O4_44  and  C1_46 
REMARK   32 I    between atoms: S1_45  and  O3S_60 
REMARK   33 I    between atoms: C6_48  and  C5_84 
REMARK   34 I    between atoms: C6_51  and  C5_87 
REMARK   35 I    between atoms: S1_53  and  O2S_55 
REMARK   36 I    between atoms: C1_56  and  O4_74 
REMARK   37 I    between atoms: O6_57  and  S2_82 
REMARK   38 I    between atoms: O4_61  and  C1_70 
REMARK   39 I    between atoms: C3_63  and  O3_79 
REMARK   40 I    between atoms: O2_69  and  S_76 
ROOT
ATOM      1  C3  IDS d 504     -12.801  49.799 174.889  0.00  0.00     0.185 C 
ATOM      2  C4  IDS d 504     -13.865  49.848 173.804  0.00  0.00     0.195 C 
ATOM      3  C1  IDS d 504     -12.842  47.240 174.639  0.00  0.00     0.294 C 
ATOM      4  O5  IDS d 504     -13.861  47.446 173.655  0.00  0.00    -0.340 OA
ATOM      5  C2  IDS d 504     -12.770  48.398 175.614  0.00  0.00     0.231 C 
ATOM      6  C5  IDS d 504     -13.709  48.627 172.901  0.00  0.00     0.257 C 
ENDROOT
BRANCH   2   7
ATOM      7  O4  IDS d 504     -15.151  49.849 174.407  0.00  0.00    -0.348 OA
BRANCH   7   8
ATOM      8  C1  SGN d 505     -15.604  51.124 174.774  0.00  0.00     0.282 C 
ATOM      9  O5  SGN d 505     -16.297  51.719 173.714  0.00  0.00    -0.349 OA
ATOM     10  C5  SGN d 505     -17.469  51.049 173.363  0.00  0.00     0.181 C 
ATOM     11  C4  SGN d 505     -18.454  51.099 174.486  0.00  0.00     0.186 C 
ATOM     12  C3  SGN d 505     -17.813  50.325 175.674  0.00  0.00     0.173 C 
ATOM     13  C2  SGN d 505     -16.501  51.066 175.995  0.00  0.00     0.157 C 
BRANCH  10  14
ATOM     14  C6  SGN d 505     -17.972  51.709 172.120  0.00  0.00     0.227 C 
BRANCH  14  15
ATOM     15  O6  SGN d 505     -17.433  52.986 172.143  0.00  0.00    -0.254 OA
BRANCH  15  16
ATOM     16  S2  SGN d 505     -18.191  54.306 172.143  0.00  0.00     0.251 S 
ATOM     17  O5S SGN d 505     -18.653  54.458 173.500  0.00  0.00    -0.572 OA
ATOM     18  O4S SGN d 505     -19.243  54.126 171.168  0.00  0.00    -0.572 OA
ATOM     19  O6S SGN d 505     -17.240  55.340 171.759  0.00  0.00    -0.572 OA
ENDBRANCH  15  16
ENDBRANCH  14  15
ENDBRANCH  10  14
BRANCH  11  20
ATOM     20  O4  SGN d 505     -19.649  50.549 173.974  0.00  0.00    -0.348 OA
BRANCH  20  21
ATOM     21  C1  IDS d 506     -20.910  50.882 174.445  0.00  0.00     0.294 C 
ATOM     22  C2  IDS d 506     -21.961  50.079 173.665  0.00  0.00     0.231 C 
ATOM     23  C3  IDS d 506     -23.409  50.605 173.862  0.00  0.00     0.185 C 
ATOM     24  C4  IDS d 506     -23.504  52.144 173.948  0.00  0.00     0.189 C 
ATOM     25  C5  IDS d 506     -22.318  52.718 174.729  0.00  0.00     0.256 C 
ATOM     26  O5  IDS d 506     -21.123  52.248 174.197  0.00  0.00    -0.340 OA
BRANCH  22  27
ATOM     27  O2  IDS d 506     -21.688  50.140 172.279  0.00  0.00    -0.244 OA
BRANCH  27  28
ATOM     28  S   IDS d 506     -21.403  48.939 171.278  0.00  0.00     0.252 S 
ATOM     29  O1S IDS d 506     -21.436  47.762 172.091  0.00  0.00    -0.572 OA
ATOM     30  O2S IDS d 506     -22.450  48.918 170.296  0.00  0.00    -0.572 OA
ATOM     31  O3S IDS d 506     -20.097  49.206 170.715  0.00  0.00    -0.572 OA
ENDBRANCH  27  28
ENDBRANCH  22  27
BRANCH  23  32
ATOM     32  O3  IDS d 506     -23.932  50.051 175.067  0.00  0.00    -0.390 OA
ATOM     33  H   IDS d 506     -23.899  50.718 175.771  0.00  0.00     0.210 HD
ENDBRANCH  23  32
BRANCH  24  34
ATOM     34  O4  IDS d 506     -23.490  52.638 172.629  0.00  0.00    -0.390 OA
ATOM     35  H   IDS d 506     -24.235  52.263 172.135  0.00  0.00     0.210 HD
ENDBRANCH  24  34
BRANCH  25  36
ATOM     36  C6  IDS d 506     -22.254  54.229 174.853  0.00  0.00     0.206 C 
ATOM     37  O62 IDS d 506     -22.507  54.803 175.899  0.00  0.00    -0.646 OA
ATOM     38  O61 IDS d 506     -21.927  54.908 173.890  0.00  0.00    -0.646 OA
ENDBRANCH  25  36
ENDBRANCH  20  21
ENDBRANCH  11  20
BRANCH  12  39
ATOM     39  O3  SGN d 505     -18.655  50.382 176.818  0.00  0.00    -0.391 OA
ATOM     40  H   SGN d 505     -18.133  50.648 177.592  0.00  0.00     0.210 HD
ENDBRANCH  12  39
BRANCH  13  41
ATOM     41  N   SGN d 505     -15.733  50.528 177.141  0.00  0.00    -0.210 NA
ATOM     42  H   SGN d 505     -14.955  49.988 176.762  0.00  0.00     0.140 HD
BRANCH  41  43
ATOM     43  S1  SGN d 505     -15.093  51.630 178.230  0.00  0.00     0.156 S 
BRANCH  43  44
ATOM     44  O3S SGN d 505     -15.170  51.033 179.516  0.00  0.00    -0.296 OA
ATOM     45  H   SGN d 505     -16.074  50.719 179.673  0.00  0.00     0.231 HD
ENDBRANCH  43  44
BRANCH  43  46
ATOM     46  O1S SGN d 505     -13.735  51.914 177.819  0.00  0.00    -0.296 OA
ATOM     47  H   SGN d 505     -13.340  52.555 178.429  0.00  0.00     0.231 HD
ENDBRANCH  43  46
BRANCH  43  48
ATOM     48  O2S SGN d 505     -15.952  52.787 178.136  0.00  0.00    -0.296 OA
ATOM     49  H   SGN d 505     -16.296  53.008 179.015  0.00  0.00     0.231 HD
ENDBRANCH  43  48
ENDBRANCH  41  43
ENDBRANCH  13  41
ENDBRANCH   7   8
ENDBRANCH   2   7
BRANCH   1  50
ATOM     50  O3  IDS d 504     -11.549  50.037 174.258  0.00  0.00    -0.390 OA
ATOM     51  H   IDS d 504     -10.849  49.570 174.742  0.00  0.00     0.210 HD
ENDBRANCH   1  50
BRANCH   6  52
ATOM     52  C6  IDS d 504     -14.632  48.602 171.671  0.00  0.00     0.206 C 
ATOM     53  O62 IDS d 504     -15.011  47.536 171.181  0.00  0.00    -0.646 OA
ATOM     54  O61 IDS d 504     -14.999  49.641 171.138  0.00  0.00    -0.646 OA
ENDBRANCH   6  52
BRANCH   5  55
ATOM     55  O2  IDS d 504     -13.860  48.285 176.526  0.00  0.00    -0.244 OA
BRANCH  55  56
ATOM     56  S   IDS d 504     -13.772  47.973 178.031  0.00  0.00     0.252 S 
ATOM     57  O2S IDS d 504     -15.108  47.949 178.549  0.00  0.00    -0.572 OA
ATOM     58  O3S IDS d 504     -13.094  46.731 178.075  0.00  0.00    -0.572 OA
ATOM     59  O1S IDS d 504     -13.006  49.015 178.612  0.00  0.00    -0.572 OA
ENDBRANCH  55  56
ENDBRANCH   5  55
BRANCH   3  60
ATOM     60  O4  SGN d 503     -11.576  47.064 174.071  0.00  0.00    -0.348 OA
BRANCH  60  61
ATOM     61  C4  SGN d 503     -11.300  45.753 173.698  0.00  0.00     0.186 C 
ATOM     62  C5  SGN d 503     -10.052  45.275 174.461  0.00  0.00     0.181 C 
ATOM     63  O5  SGN d 503      -9.669  44.002 174.046  0.00  0.00    -0.349 OA
ATOM     64  C1  SGN d 503      -9.319  43.941 172.685  0.00  0.00     0.282 C 
ATOM     65  C2  SGN d 503     -10.527  44.342 171.826  0.00  0.00     0.157 C 
ATOM     66  C3  SGN d 503     -11.041  45.722 172.194  0.00  0.00     0.173 C 
BRANCH  62  67
ATOM     67  C6  SGN d 503     -10.243  45.147 175.948  0.00  0.00     0.227 C 
BRANCH  67  68
ATOM     68  O6  SGN d 503     -10.520  43.792 176.226  0.00  0.00    -0.254 OA
BRANCH  68  69
ATOM     69  S2  SGN d 503     -11.728  43.266 177.047  0.00  0.00     0.251 S 
ATOM     70  O6S SGN d 503     -11.524  41.871 177.087  0.00  0.00    -0.572 OA
ATOM     71  O4S SGN d 503     -11.647  43.811 178.359  0.00  0.00    -0.572 OA
ATOM     72  O5S SGN d 503     -12.937  43.696 176.351  0.00  0.00    -0.572 OA
ENDBRANCH  68  69
ENDBRANCH  67  68
ENDBRANCH  62  67
BRANCH  64  73
ATOM     73  O4  IDS d 502      -8.212  44.753 172.403  0.00  0.00    -0.348 OA
BRANCH  73  74
ATOM     74  C4  IDS d 502      -6.967  44.117 172.539  0.00  0.00     0.195 C 
ATOM     75  C3  IDS d 502      -6.479  43.636 171.159  0.00  0.00     0.185 C 
ATOM     76  C2  IDS d 502      -6.094  44.821 170.269  0.00  0.00     0.231 C 
ATOM     77  C1  IDS d 502      -5.189  45.809 170.999  0.00  0.00     0.291 C 
ATOM     78  O5  IDS d 502      -5.731  46.175 172.243  0.00  0.00    -0.340 OA
ATOM     79  C5  IDS d 502      -5.958  45.099 173.131  0.00  0.00     0.257 C 
BRANCH  75  80
ATOM     80  O3  IDS d 502      -5.333  42.827 171.334  0.00  0.00    -0.390 OA
ATOM     81  H   IDS d 502      -5.606  41.919 171.537  0.00  0.00     0.210 HD
ENDBRANCH  75  80
BRANCH  76  82
ATOM     82  O2  IDS d 502      -7.279  45.488 169.926  0.00  0.00    -0.244 OA
BRANCH  82  83
ATOM     83  S   IDS d 502      -7.659  46.116 168.545  0.00  0.00     0.252 S 
ATOM     84  O3S IDS d 502      -6.737  47.209 168.373  0.00  0.00    -0.572 OA
ATOM     85  O2S IDS d 502      -9.038  46.530 168.666  0.00  0.00    -0.572 OA
ATOM     86  O1S IDS d 502      -7.480  45.096 167.549  0.00  0.00    -0.572 OA
ENDBRANCH  82  83
ENDBRANCH  76  82
BRANCH  77  87
ATOM     87  O1  IDS d 502      -3.918  45.227 171.115  0.00  0.00    -0.368 OA
ATOM     88  H   IDS d 502      -3.805  44.872 172.011  0.00  0.00     0.212 HD
ENDBRANCH  77  87
BRANCH  79  89
ATOM     89  C6  IDS d 502      -6.325  45.612 174.517  0.00  0.00     0.206 C 
ATOM     90  O61 IDS d 502      -6.600  44.852 175.414  0.00  0.00    -0.646 OA
ATOM     91  O62 IDS d 502      -6.346  46.803 174.758  0.00  0.00    -0.646 OA
ENDBRANCH  79  89
ENDBRANCH  73  74
ENDBRANCH  64  73
BRANCH  65  92
ATOM     92  N   SGN d 503     -10.197  44.259 170.415  0.00  0.00    -0.210 NA
ATOM     93  H   SGN d 503      -9.318  44.757 170.277  0.00  0.00     0.140 HD
BRANCH  92  94
ATOM     94  S1  SGN d 503     -10.022  42.776 169.768  0.00  0.00     0.156 S 
BRANCH  94  95
ATOM     95  O2S SGN d 503      -8.843  42.791 168.904  0.00  0.00    -0.296 OA
ATOM     96  H   SGN d 503      -8.334  43.601 169.066  0.00  0.00     0.231 HD
ENDBRANCH  94  95
BRANCH  94  97
ATOM     97  O1S SGN d 503     -11.239  42.513 169.024  0.00  0.00    -0.296 OA
ATOM     98  H   SGN d 503     -11.018  42.325 168.098  0.00  0.00     0.231 HD
ENDBRANCH  94  97
BRANCH  94  99
ATOM     99  O3S SGN d 503      -9.887  41.923 170.927  0.00  0.00    -0.296 OA
ATOM    100  H   SGN d 503     -10.703  41.958 171.450  0.00  0.00     0.231 HD
ENDBRANCH  94  99
ENDBRANCH  92  94
ENDBRANCH  65  92
BRANCH  66 101
ATOM    101  O3  SGN d 503     -12.265  45.972 171.531  0.00  0.00    -0.391 OA
ATOM    102  H   SGN d 503     -12.918  46.301 172.169  0.00  0.00     0.210 HD
ENDBRANCH  66 101
ENDBRANCH  60  61
ENDBRANCH   3  60
TORSDOF 40
ENDMDL
MODEL 19
REMARK VINA RESULT:      -3.4      4.030     12.302
REMARK WARNING: 32 MAX_TORS EXCEEDED!!!
REMARK  40 active torsions:
REMARK  status: ('A' for Active; 'I' for Inactive)
REMARK    1 I    between atoms: C6_1  and  C5_8 
REMARK    2 I    between atoms: C6_1  and  O6_57 
REMARK    3 I    between atoms: O4_2  and  C4_49 
REMARK    4 I    between atoms: O6_3  and  C6_7 
REMARK    5 I    between atoms: O6_3  and  S2_58 
REMARK    6 I    between atoms: S_4  and  O2_6 
REMARK    7 I    between atoms: O3_5  and  C3_81 
REMARK    8 I    between atoms: O2_6  and  C2_11 
REMARK    9 I    between atoms: C6_7  and  C5_54 
REMARK   10 I    between atoms: O4_9  and  C4_32 
REMARK   11 I    between atoms: O4_9  and  C1_39 
REMARK   12 I    between atoms: O3_12  and  C3_18 
REMARK   13 I    between atoms: N_13  and  C2_52 
REMARK   14 I    between atoms: N_13  and  S1_45 
REMARK   15 I    between atoms: O3_17  and  C3_83 
REMARK   16 I    between atoms: C4_20  and  O4_44 
REMARK   17 I    between atoms: N_21  and  C2_66 
REMARK   18 I    between atoms: N_21  and  S1_53 
REMARK   19 I    between atoms: O3_22  and  C3_65 
REMARK   20 I    between atoms: C4_23  and  O4_74 
REMARK   21 I    between atoms: C1_25  and  O1_72 
REMARK   22 I    between atoms: C2_28  and  O2_69 
REMARK   23 I    between atoms: C4_33  and  O4_61 
REMARK   24 I    between atoms: O2S_34  and  S1_45 
REMARK   25 I    between atoms: C6_37  and  C5_47 
REMARK   26 I    between atoms: O2_38  and  C2_77 
REMARK   27 I    between atoms: O2_38  and  S_50 
REMARK   28 I    between atoms: O3S_40  and  S1_53 
REMARK   29 I    between atoms: O1S_42  and  S1_45 
REMARK   30 I    between atoms: O1S_43  and  S1_53 
REMARK   31 I    between atoms: O4_44  and  C1_46 
REMARK   32 I    between atoms: S1_45  and  O3S_60 
REMARK   33 I    between atoms: C6_48  and  C5_84 
REMARK   34 I    between atoms: C6_51  and  C5_87 
REMARK   35 I    between atoms: S1_53  and  O2S_55 
REMARK   36 I    between atoms: C1_56  and  O4_74 
REMARK   37 I    between atoms: O6_57  and  S2_82 
REMARK   38 I    between atoms: O4_61  and  C1_70 
REMARK   39 I    between atoms: C3_63  and  O3_79 
REMARK   40 I    between atoms: O2_69  and  S_76 
ROOT
ATOM      1  C3  IDS d 504     -15.381  50.791 173.514  0.00  0.00     0.185 C 
ATOM      2  C4  IDS d 504     -16.499  49.764 173.431  0.00  0.00     0.195 C 
ATOM      3  C1  IDS d 504     -13.971  48.978 174.671  0.00  0.00     0.294 C 
ATOM      4  O5  IDS d 504     -15.121  48.135 174.546  0.00  0.00    -0.340 OA
ATOM      5  C2  IDS d 504     -14.353  50.445 174.660  0.00  0.00     0.231 C 
ATOM      6  C5  IDS d 504     -15.886  48.366 173.385  0.00  0.00     0.257 C 
ENDROOT
BRANCH   2   7
ATOM      7  O4  IDS d 504     -17.340  49.892 174.568  0.00  0.00    -0.348 OA
BRANCH   7   8
ATOM      8  C1  SGN d 505     -18.473  50.687 174.350  0.00  0.00     0.282 C 
ATOM      9  O5  SGN d 505     -19.508  49.922 173.802  0.00  0.00    -0.349 OA
ATOM     10  C5  SGN d 505     -19.977  48.920 174.652  0.00  0.00     0.181 C 
ATOM     11  C4  SGN d 505     -20.603  49.521 175.868  0.00  0.00     0.186 C 
ATOM     12  C3  SGN d 505     -19.473  50.280 176.622  0.00  0.00     0.173 C 
ATOM     13  C2  SGN d 505     -18.951  51.340 175.632  0.00  0.00     0.157 C 
BRANCH  10  14
ATOM     14  C6  SGN d 505     -20.936  48.104 173.848  0.00  0.00     0.227 C 
BRANCH  14  15
ATOM     15  O6  SGN d 505     -20.522  46.791 174.013  0.00  0.00    -0.254 OA
BRANCH  15  16
ATOM     16  S2  SGN d 505     -20.868  45.598 173.134  0.00  0.00     0.251 S 
ATOM     17  O5S SGN d 505     -22.122  45.114 173.657  0.00  0.00    -0.572 OA
ATOM     18  O4S SGN d 505     -19.759  44.687 173.297  0.00  0.00    -0.572 OA
ATOM     19  O6S SGN d 505     -20.989  46.098 171.771  0.00  0.00    -0.572 OA
ENDBRANCH  15  16
ENDBRANCH  14  15
ENDBRANCH  10  14
BRANCH  11  20
ATOM     20  O4  SGN d 505     -21.188  48.445 176.571  0.00  0.00    -0.348 OA
BRANCH  20  21
ATOM     21  C1  IDS d 506     -22.517  48.420 176.968  0.00  0.00     0.294 C 
ATOM     22  C2  IDS d 506     -22.812  47.066 177.629  0.00  0.00     0.231 C 
ATOM     23  C3  IDS d 506     -24.331  46.787 177.808  0.00  0.00     0.185 C 
ATOM     24  C4  IDS d 506     -25.197  47.291 176.634  0.00  0.00     0.189 C 
ATOM     25  C5  IDS d 506     -24.674  48.633 176.111  0.00  0.00     0.256 C 
ATOM     26  O5  IDS d 506     -23.318  48.536 175.820  0.00  0.00    -0.340 OA
BRANCH  22  27
ATOM     27  O2  IDS d 506     -22.293  46.014 176.838  0.00  0.00    -0.244 OA
BRANCH  27  28
ATOM     28  S   IDS d 506     -21.428  44.766 177.305  0.00  0.00     0.252 S 
ATOM     29  O1S IDS d 506     -22.179  43.619 176.894  0.00  0.00    -0.572 OA
ATOM     30  O2S IDS d 506     -20.163  44.823 176.630  0.00  0.00    -0.572 OA
ATOM     31  O3S IDS d 506     -21.316  44.889 178.742  0.00  0.00    -0.572 OA
ENDBRANCH  27  28
ENDBRANCH  22  27
BRANCH  23  32
ATOM     32  O3  IDS d 506     -24.770  47.426 179.003  0.00  0.00    -0.390 OA
ATOM     33  H   IDS d 506     -25.697  47.696 178.903  0.00  0.00     0.210 HD
ENDBRANCH  23  32
BRANCH  24  34
ATOM     34  O4  IDS d 506     -25.125  46.322 175.614  0.00  0.00    -0.390 OA
ATOM     35  H   IDS d 506     -24.321  45.791 175.729  0.00  0.00     0.210 HD
ENDBRANCH  24  34
BRANCH  25  36
ATOM     36  C6  IDS d 506     -25.403  49.228 174.920  0.00  0.00     0.206 C 
ATOM     37  O62 IDS d 506     -26.281  48.622 174.331  0.00  0.00    -0.646 OA
ATOM     38  O61 IDS d 506     -25.126  50.355 174.535  0.00  0.00    -0.646 OA
ENDBRANCH  25  36
ENDBRANCH  20  21
ENDBRANCH  11  20
BRANCH  12  39
ATOM     39  O3  SGN d 505     -19.996  50.948 177.763  0.00  0.00    -0.391 OA
ATOM     40  H   SGN d 505     -20.093  50.315 178.492  0.00  0.00     0.210 HD
ENDBRANCH  12  39
BRANCH  13  41
ATOM     41  N   SGN d 505     -17.888  52.228 176.156  0.00  0.00    -0.210 NA
ATOM     42  H   SGN d 505     -17.004  51.919 175.750  0.00  0.00     0.140 HD
BRANCH  41  43
ATOM     43  S1  SGN d 505     -18.032  53.870 175.855  0.00  0.00     0.156 S 
BRANCH  43  44
ATOM     44  O3S SGN d 505     -17.046  54.523 176.640  0.00  0.00    -0.296 OA
ATOM     45  H   SGN d 505     -16.385  54.927 176.057  0.00  0.00     0.231 HD
ENDBRANCH  43  44
BRANCH  43  46
ATOM     46  O1S SGN d 505     -17.848  54.072 174.433  0.00  0.00    -0.296 OA
ATOM     47  H   SGN d 505     -18.201  53.309 173.950  0.00  0.00     0.231 HD
ENDBRANCH  43  46
BRANCH  43  48
ATOM     48  O2S SGN d 505     -19.365  54.212 176.293  0.00  0.00    -0.296 OA
ATOM     49  H   SGN d 505     -19.884  53.402 176.415  0.00  0.00     0.231 HD
ENDBRANCH  43  48
ENDBRANCH  41  43
ENDBRANCH  13  41
ENDBRANCH   7   8
ENDBRANCH   2   7
BRANCH   1  50
ATOM     50  O3  IDS d 504     -14.714  50.785 172.258  0.00  0.00    -0.390 OA
ATOM     51  H   IDS d 504     -15.340  51.033 171.559  0.00  0.00     0.210 HD
ENDBRANCH   1  50
BRANCH   6  52
ATOM     52  C6  IDS d 504     -16.888  47.220 173.165  0.00  0.00     0.206 C 
ATOM     53  O62 IDS d 504     -17.786  47.311 172.325  0.00  0.00    -0.646 OA
ATOM     54  O61 IDS d 504     -16.830  46.196 173.833  0.00  0.00    -0.646 OA
ENDBRANCH   6  52
BRANCH   5  55
ATOM     55  O2  IDS d 504     -14.899  50.775 175.935  0.00  0.00    -0.244 OA
BRANCH  55  56
ATOM     56  S   IDS d 504     -14.455  51.927 176.855  0.00  0.00     0.252 S 
ATOM     57  O2S IDS d 504     -13.209  51.547 177.455  0.00  0.00    -0.572 OA
ATOM     58  O3S IDS d 504     -14.381  53.040 175.985  0.00  0.00    -0.572 OA
ATOM     59  O1S IDS d 504     -15.476  52.080 177.826  0.00  0.00    -0.572 OA
ENDBRANCH  55  56
ENDBRANCH   5  55
BRANCH   3  60
ATOM     60  O4  SGN d 503     -13.034  48.760 173.655  0.00  0.00    -0.348 OA
BRANCH  60  61
ATOM     61  C4  SGN d 503     -12.117  47.754 173.937  0.00  0.00     0.186 C 
ATOM     62  C5  SGN d 503     -10.702  48.279 173.639  0.00  0.00     0.181 C 
ATOM     63  O5  SGN d 503      -9.751  47.274 173.804  0.00  0.00    -0.349 OA
ATOM     64  C1  SGN d 503      -9.934  46.184 172.935  0.00  0.00     0.282 C 
ATOM     65  C2  SGN d 503     -11.305  45.544 173.197  0.00  0.00     0.157 C 
ATOM     66  C3  SGN d 503     -12.430  46.552 173.050  0.00  0.00     0.173 C 
BRANCH  62  67
ATOM     67  C6  SGN d 503     -10.245  49.387 174.549  0.00  0.00     0.227 C 
BRANCH  67  68
ATOM     68  O6  SGN d 503     -10.497  50.609 173.891  0.00  0.00    -0.254 OA
BRANCH  68  69
ATOM     69  S2  SGN d 503     -10.379  52.019 174.528  0.00  0.00     0.251 S 
ATOM     70  O6S SGN d 503     -11.585  52.654 174.161  0.00  0.00    -0.572 OA
ATOM     71  O4S SGN d 503     -10.317  51.867 175.942  0.00  0.00    -0.572 OA
ATOM     72  O5S SGN d 503      -9.168  52.632 173.990  0.00  0.00    -0.572 OA
ENDBRANCH  68  69
ENDBRANCH  67  68
ENDBRANCH  62  67
BRANCH  64  73
ATOM     73  O4  IDS d 502      -9.810  46.571 171.594  0.00  0.00    -0.348 OA
BRANCH  73  74
ATOM     74  C4  IDS d 502      -8.530  47.018 171.227  0.00  0.00     0.195 C 
ATOM     75  C3  IDS d 502      -7.630  45.807 170.914  0.00  0.00     0.185 C 
ATOM     76  C2  IDS d 502      -8.068  45.118 169.618  0.00  0.00     0.231 C 
ATOM     77  C1  IDS d 502      -8.276  46.118 168.485  0.00  0.00     0.291 C 
ATOM     78  O5  IDS d 502      -9.109  47.178 168.884  0.00  0.00    -0.340 OA
ATOM     79  C5  IDS d 502      -8.639  47.915 169.995  0.00  0.00     0.257 C 
BRANCH  75  80
ATOM     80  O3  IDS d 502      -6.299  46.256 170.744  0.00  0.00    -0.390 OA
ATOM     81  H   IDS d 502      -5.923  46.485 171.607  0.00  0.00     0.210 HD
ENDBRANCH  75  80
BRANCH  76  82
ATOM     82  O2  IDS d 502      -9.296  44.491 169.875  0.00  0.00    -0.244 OA
BRANCH  82  83
ATOM     83  S   IDS d 502      -9.631  42.966 169.777  0.00  0.00     0.252 S 
ATOM     84  O3S IDS d 502      -9.264  42.426 171.061  0.00  0.00    -0.572 OA
ATOM     85  O2S IDS d 502      -8.837  42.457 168.683  0.00  0.00    -0.572 OA
ATOM     86  O1S IDS d 502     -11.041  42.854 169.527  0.00  0.00    -0.572 OA
ENDBRANCH  82  83
ENDBRANCH  76  82
BRANCH  77  87
ATOM     87  O1  IDS d 502      -7.013  46.555 168.059  0.00  0.00    -0.368 OA
ATOM     88  H   IDS d 502      -6.962  47.521 168.138  0.00  0.00     0.212 HD
ENDBRANCH  77  87
BRANCH  79  89
ATOM     89  C6  IDS d 502      -9.480  49.165 170.207  0.00  0.00     0.206 C 
ATOM     90  O61 IDS d 502     -10.554  49.296 169.671  0.00  0.00    -0.646 OA
ATOM     91  O62 IDS d 502      -9.094  50.066 170.926  0.00  0.00    -0.646 OA
ENDBRANCH  79  89
ENDBRANCH  73  74
ENDBRANCH  64  73
BRANCH  65  92
ATOM     92  N   SGN d 503     -11.504  44.397 172.329  0.00  0.00    -0.210 NA
ATOM     93  H   SGN d 503     -10.583  44.032 172.088  0.00  0.00     0.140 HD
BRANCH  92  94
ATOM     94  S1  SGN d 503     -12.382  43.156 172.910  0.00  0.00     0.156 S 
BRANCH  94  95
ATOM     95  O2S SGN d 503     -13.729  43.247 172.349  0.00  0.00    -0.296 OA
ATOM     96  H   SGN d 503     -13.718  42.935 171.431  0.00  0.00     0.231 HD
ENDBRANCH  94  95
BRANCH  94  97
ATOM     97  O1S SGN d 503     -12.382  43.302 174.354  0.00  0.00    -0.296 OA
ATOM     98  H   SGN d 503     -12.814  42.532 174.756  0.00  0.00     0.231 HD
ENDBRANCH  94  97
BRANCH  94  99
ATOM     99  O3S SGN d 503     -11.643  41.993 172.472  0.00  0.00    -0.296 OA
ATOM    100  H   SGN d 503     -11.154  41.620 173.221  0.00  0.00     0.231 HD
ENDBRANCH  94  99
ENDBRANCH  92  94
ENDBRANCH  65  92
BRANCH  66 101
ATOM    101  O3  SGN d 503     -13.647  45.982 173.493  0.00  0.00    -0.391 OA
ATOM    102  H   SGN d 503     -13.460  45.209 174.048  0.00  0.00     0.210 HD
ENDBRANCH  66 101
ENDBRANCH  60  61
ENDBRANCH   3  60
TORSDOF 40
ENDMDL
MODEL 20
REMARK VINA RESULT:      -3.4      4.466     12.445
REMARK WARNING: 32 MAX_TORS EXCEEDED!!!
REMARK  40 active torsions:
REMARK  status: ('A' for Active; 'I' for Inactive)
REMARK    1 I    between atoms: C6_1  and  C5_8 
REMARK    2 I    between atoms: C6_1  and  O6_57 
REMARK    3 I    between atoms: O4_2  and  C4_49 
REMARK    4 I    between atoms: O6_3  and  C6_7 
REMARK    5 I    between atoms: O6_3  and  S2_58 
REMARK    6 I    between atoms: S_4  and  O2_6 
REMARK    7 I    between atoms: O3_5  and  C3_81 
REMARK    8 I    between atoms: O2_6  and  C2_11 
REMARK    9 I    between atoms: C6_7  and  C5_54 
REMARK   10 I    between atoms: O4_9  and  C4_32 
REMARK   11 I    between atoms: O4_9  and  C1_39 
REMARK   12 I    between atoms: O3_12  and  C3_18 
REMARK   13 I    between atoms: N_13  and  C2_52 
REMARK   14 I    between atoms: N_13  and  S1_45 
REMARK   15 I    between atoms: O3_17  and  C3_83 
REMARK   16 I    between atoms: C4_20  and  O4_44 
REMARK   17 I    between atoms: N_21  and  C2_66 
REMARK   18 I    between atoms: N_21  and  S1_53 
REMARK   19 I    between atoms: O3_22  and  C3_65 
REMARK   20 I    between atoms: C4_23  and  O4_74 
REMARK   21 I    between atoms: C1_25  and  O1_72 
REMARK   22 I    between atoms: C2_28  and  O2_69 
REMARK   23 I    between atoms: C4_33  and  O4_61 
REMARK   24 I    between atoms: O2S_34  and  S1_45 
REMARK   25 I    between atoms: C6_37  and  C5_47 
REMARK   26 I    between atoms: O2_38  and  C2_77 
REMARK   27 I    between atoms: O2_38  and  S_50 
REMARK   28 I    between atoms: O3S_40  and  S1_53 
REMARK   29 I    between atoms: O1S_42  and  S1_45 
REMARK   30 I    between atoms: O1S_43  and  S1_53 
REMARK   31 I    between atoms: O4_44  and  C1_46 
REMARK   32 I    between atoms: S1_45  and  O3S_60 
REMARK   33 I    between atoms: C6_48  and  C5_84 
REMARK   34 I    between atoms: C6_51  and  C5_87 
REMARK   35 I    between atoms: S1_53  and  O2S_55 
REMARK   36 I    between atoms: C1_56  and  O4_74 
REMARK   37 I    between atoms: O6_57  and  S2_82 
REMARK   38 I    between atoms: O4_61  and  C1_70 
REMARK   39 I    between atoms: C3_63  and  O3_79 
REMARK   40 I    between atoms: O2_69  and  S_76 
ROOT
ATOM      1  C3  IDS d 504     -15.692  49.822 173.954  0.00  0.00     0.185 C 
ATOM      2  C4  IDS d 504     -16.657  48.683 173.663  0.00  0.00     0.195 C 
ATOM      3  C1  IDS d 504     -14.105  48.060 174.948  0.00  0.00     0.294 C 
ATOM      4  O5  IDS d 504     -15.124  47.103 174.638  0.00  0.00    -0.340 OA
ATOM      5  C2  IDS d 504     -14.681  49.453 175.107  0.00  0.00     0.231 C 
ATOM      6  C5  IDS d 504     -15.859  47.395 173.471  0.00  0.00     0.257 C 
ENDROOT
BRANCH   2   7
ATOM      7  O4  IDS d 504     -17.558  48.542 174.751  0.00  0.00    -0.348 OA
BRANCH   7   8
ATOM      8  C1  SGN d 505     -18.713  49.328 174.635  0.00  0.00     0.282 C 
ATOM      9  O5  SGN d 505     -19.690  48.653 173.894  0.00  0.00    -0.349 OA
ATOM     10  C5  SGN d 505     -20.152  47.487 174.505  0.00  0.00     0.181 C 
ATOM     11  C4  SGN d 505     -20.857  47.812 175.782  0.00  0.00     0.186 C 
ATOM     12  C3  SGN d 505     -19.795  48.443 176.728  0.00  0.00     0.173 C 
ATOM     13  C2  SGN d 505     -19.276  49.695 175.995  0.00  0.00     0.157 C 
BRANCH  10  14
ATOM     14  C6  SGN d 505     -21.040  46.815 173.507  0.00  0.00     0.227 C 
BRANCH  14  15
ATOM     15  O6  SGN d 505     -21.205  47.740 172.488  0.00  0.00    -0.254 OA
BRANCH  15  16
ATOM     16  S2  SGN d 505     -21.376  47.454 171.003  0.00  0.00     0.251 S 
ATOM     17  O5S SGN d 505     -21.780  46.071 170.945  0.00  0.00    -0.572 OA
ATOM     18  O4S SGN d 505     -20.079  47.725 170.425  0.00  0.00    -0.572 OA
ATOM     19  O6S SGN d 505     -22.409  48.357 170.514  0.00  0.00    -0.572 OA
ENDBRANCH  15  16
ENDBRANCH  14  15
ENDBRANCH  10  14
BRANCH  11  20
ATOM     20  O4  SGN d 505     -21.426  46.599 176.227  0.00  0.00    -0.348 OA
BRANCH  20  21
ATOM     21  C1  IDS d 506     -22.474  46.530 177.132  0.00  0.00     0.294 C 
ATOM     22  C2  IDS d 506     -22.719  45.059 177.498  0.00  0.00     0.231 C 
ATOM     23  C3  IDS d 506     -24.069  44.824 178.231  0.00  0.00     0.185 C 
ATOM     24  C4  IDS d 506     -25.223  45.702 177.703  0.00  0.00     0.189 C 
ATOM     25  C5  IDS d 506     -24.722  47.107 177.357  0.00  0.00     0.256 C 
ATOM     26  O5  IDS d 506     -23.628  47.027 176.503  0.00  0.00    -0.340 OA
BRANCH  22  27
ATOM     27  O2  IDS d 506     -22.744  44.264 176.329  0.00  0.00    -0.244 OA
BRANCH  27  28
ATOM     28  S   IDS d 506     -21.866  42.983 175.991  0.00  0.00     0.252 S 
ATOM     29  O1S IDS d 506     -21.396  42.510 177.256  0.00  0.00    -0.572 OA
ATOM     30  O2S IDS d 506     -22.717  42.013 175.361  0.00  0.00    -0.572 OA
ATOM     31  O3S IDS d 506     -20.805  43.458 175.129  0.00  0.00    -0.572 OA
ENDBRANCH  27  28
ENDBRANCH  22  27
BRANCH  23  32
ATOM     32  O3  IDS d 506     -23.885  45.102 179.617  0.00  0.00    -0.390 OA
ATOM     33  H   IDS d 506     -23.090  44.646 179.936  0.00  0.00     0.210 HD
ENDBRANCH  23  32
BRANCH  24  34
ATOM     34  O4  IDS d 506     -25.727  45.077 176.546  0.00  0.00    -0.390 OA
ATOM     35  H   IDS d 506     -26.467  45.597 176.193  0.00  0.00     0.210 HD
ENDBRANCH  24  34
BRANCH  25  36
ATOM     36  C6  IDS d 506     -25.743  48.069 176.778  0.00  0.00     0.206 C 
ATOM     37  O62 IDS d 506     -26.562  47.719 175.947  0.00  0.00    -0.646 OA
ATOM     38  O61 IDS d 506     -25.770  49.232 177.156  0.00  0.00    -0.646 OA
ENDBRANCH  25  36
ENDBRANCH  20  21
ENDBRANCH  11  20
BRANCH  12  39
ATOM     39  O3  SGN d 505     -20.395  48.852 177.950  0.00  0.00    -0.391 OA
ATOM     40  H   SGN d 505     -19.703  49.044 178.602  0.00  0.00     0.210 HD
ENDBRANCH  12  39
BRANCH  13  41
ATOM     41  N   SGN d 505     -18.275  50.496 176.738  0.00  0.00    -0.210 NA
ATOM     42  H   SGN d 505     -17.354  50.247 176.376  0.00  0.00     0.140 HD
BRANCH  41  43
ATOM     43  S1  SGN d 505     -18.408  52.164 176.663  0.00  0.00     0.156 S 
BRANCH  43  44
ATOM     44  O3S SGN d 505     -18.405  52.640 178.001  0.00  0.00    -0.296 OA
ATOM     45  H   SGN d 505     -17.810  53.403 178.071  0.00  0.00     0.231 HD
ENDBRANCH  43  44
BRANCH  43  46
ATOM     46  O1S SGN d 505     -17.293  52.658 175.884  0.00  0.00    -0.296 OA
ATOM     47  H   SGN d 505     -16.605  51.977 175.836  0.00  0.00     0.231 HD
ENDBRANCH  43  46
BRANCH  43  48
ATOM     48  O2S SGN d 505     -19.680  52.407 176.022  0.00  0.00    -0.296 OA
ATOM     49  H   SGN d 505     -20.012  51.581 175.639  0.00  0.00     0.231 HD
ENDBRANCH  43  48
ENDBRANCH  41  43
ENDBRANCH  13  41
ENDBRANCH   7   8
ENDBRANCH   2   7
BRANCH   1  50
ATOM     50  O3  IDS d 504     -14.973  50.078 172.753  0.00  0.00    -0.390 OA
ATOM     51  H   IDS d 504     -14.389  49.328 172.561  0.00  0.00     0.210 HD
ENDBRANCH   1  50
BRANCH   6  52
ATOM     52  C6  IDS d 504     -16.686  46.173 173.037  0.00  0.00     0.206 C 
ATOM     53  O62 IDS d 504     -17.675  46.299 172.313  0.00  0.00    -0.646 OA
ATOM     54  O61 IDS d 504     -16.392  45.047 173.416  0.00  0.00    -0.646 OA
ENDBRANCH   6  52
BRANCH   5  55
ATOM     55  O2  IDS d 504     -15.325  49.529 176.377  0.00  0.00    -0.244 OA
BRANCH  55  56
ATOM     56  S   IDS d 504     -14.724  50.085 177.681  0.00  0.00     0.252 S 
ATOM     57  O2S IDS d 504     -13.405  50.561 177.382  0.00  0.00    -0.572 OA
ATOM     58  O3S IDS d 504     -15.644  51.088 178.071  0.00  0.00    -0.572 OA
ATOM     59  O1S IDS d 504     -14.695  49.007 178.600  0.00  0.00    -0.572 OA
ENDBRANCH  55  56
ENDBRANCH   5  55
BRANCH   3  60
ATOM     60  O4  SGN d 503     -13.102  48.107 173.975  0.00  0.00    -0.348 OA
BRANCH  60  61
ATOM     61  C4  SGN d 503     -12.029  47.261 174.226  0.00  0.00     0.186 C 
ATOM     62  C5  SGN d 503     -10.725  48.001 173.880  0.00  0.00     0.181 C 
ATOM     63  O5  SGN d 503      -9.621  47.160 174.014  0.00  0.00    -0.349 OA
ATOM     64  C1  SGN d 503      -9.658  46.049 173.152  0.00  0.00     0.282 C 
ATOM     65  C2  SGN d 503     -10.901  45.202 173.461  0.00  0.00     0.157 C 
ATOM     66  C3  SGN d 503     -12.176  46.018 173.351  0.00  0.00     0.173 C 
BRANCH  62  67
ATOM     67  C6  SGN d 503     -10.419  49.172 174.774  0.00  0.00     0.227 C 
BRANCH  67  68
ATOM     68  O6  SGN d 503     -10.815  50.342 174.091  0.00  0.00    -0.254 OA
BRANCH  68  69
ATOM     69  S2  SGN d 503     -10.585  51.796 174.582  0.00  0.00     0.251 S 
ATOM     70  O6S SGN d 503      -9.456  52.222 173.850  0.00  0.00    -0.572 OA
ATOM     71  O4S SGN d 503     -11.722  52.574 174.225  0.00  0.00    -0.572 OA
ATOM     72  O5S SGN d 503     -10.398  51.734 176.028  0.00  0.00    -0.572 OA
ENDBRANCH  68  69
ENDBRANCH  67  68
ENDBRANCH  62  67
BRANCH  64  73
ATOM     73  O4  IDS d 502      -9.641  46.443 171.807  0.00  0.00    -0.348 OA
BRANCH  73  74
ATOM     74  C4  IDS d 502      -8.420  46.979 171.367  0.00  0.00     0.195 C 
ATOM     75  C3  IDS d 502      -7.448  45.834 171.023  0.00  0.00     0.185 C 
ATOM     76  C2  IDS d 502      -7.899  45.091 169.762  0.00  0.00     0.231 C 
ATOM     77  C1  IDS d 502      -8.241  46.052 168.628  0.00  0.00     0.291 C 
ATOM     78  O5  IDS d 502      -9.131  47.053 169.056  0.00  0.00    -0.340 OA
ATOM     79  C5  IDS d 502      -8.661  47.843 170.131  0.00  0.00     0.257 C 
BRANCH  75  80
ATOM     80  O3  IDS d 502      -6.166  46.379 170.776  0.00  0.00    -0.390 OA
ATOM     81  H   IDS d 502      -5.862  46.104 169.897  0.00  0.00     0.210 HD
ENDBRANCH  75  80
BRANCH  76  82
ATOM     82  O2  IDS d 502      -9.060  44.377 170.093  0.00  0.00    -0.244 OA
BRANCH  82  83
ATOM     83  S   IDS d 502      -9.422  42.905 169.706  0.00  0.00     0.252 S 
ATOM     84  O3S IDS d 502     -10.855  42.903 169.565  0.00  0.00    -0.572 OA
ATOM     85  O2S IDS d 502      -8.943  42.083 170.793  0.00  0.00    -0.572 OA
ATOM     86  O1S IDS d 502      -8.756  42.614 168.467  0.00  0.00    -0.572 OA
ENDBRANCH  82  83
ENDBRANCH  76  82
BRANCH  77  87
ATOM     87  O1  IDS d 502      -7.039  46.576 168.129  0.00  0.00    -0.368 OA
ATOM     88  H   IDS d 502      -7.181  46.909 167.229  0.00  0.00     0.212 HD
ENDBRANCH  77  87
BRANCH  79  89
ATOM     89  C6  IDS d 502      -9.584  49.030 170.369  0.00  0.00     0.206 C 
ATOM     90  O61 IDS d 502     -10.617  49.153 169.757  0.00  0.00    -0.646 OA
ATOM     91  O62 IDS d 502      -9.305  49.885 171.187  0.00  0.00    -0.646 OA
ENDBRANCH  79  89
ENDBRANCH  73  74
ENDBRANCH  64  73
BRANCH  65  92
ATOM     92  N   SGN d 503     -10.946  44.033 172.600  0.00  0.00    -0.210 NA
ATOM     93  H   SGN d 503     -10.131  44.073 171.988  0.00  0.00     0.140 HD
BRANCH  92  94
ATOM     94  S1  SGN d 503     -10.945  42.571 173.316  0.00  0.00     0.156 S 
BRANCH  94  95
ATOM     95  O2S SGN d 503      -9.567  42.241 173.677  0.00  0.00    -0.296 OA
ATOM     96  H   SGN d 503      -9.071  43.058 173.839  0.00  0.00     0.231 HD
ENDBRANCH  94  95
BRANCH  94  97
ATOM     97  O1S SGN d 503     -11.489  41.644 172.342  0.00  0.00    -0.296 OA
ATOM     98  H   SGN d 503     -11.574  40.765 172.745  0.00  0.00     0.231 HD
ENDBRANCH  94  97
BRANCH  94  99
ATOM     99  O3S SGN d 503     -11.819  42.758 174.452  0.00  0.00    -0.296 OA
ATOM    100  H   SGN d 503     -11.772  43.680 174.747  0.00  0.00     0.231 HD
ENDBRANCH  94  99
ENDBRANCH  92  94
ENDBRANCH  65  92
BRANCH  66 101
ATOM    101  O3  SGN d 503     -13.273  45.266 173.835  0.00  0.00    -0.391 OA
ATOM    102  H   SGN d 503     -13.557  44.635 173.156  0.00  0.00     0.210 HD
ENDBRANCH  66 101
ENDBRANCH  60  61
ENDBRANCH   3  60
TORSDOF 40
ENDMDL
MODEL 21
REMARK VINA RESULT:      -3.3      4.843      7.888
REMARK WARNING: 32 MAX_TORS EXCEEDED!!!
REMARK  40 active torsions:
REMARK  status: ('A' for Active; 'I' for Inactive)
REMARK    1 I    between atoms: C6_1  and  C5_8 
REMARK    2 I    between atoms: C6_1  and  O6_57 
REMARK    3 I    between atoms: O4_2  and  C4_49 
REMARK    4 I    between atoms: O6_3  and  C6_7 
REMARK    5 I    between atoms: O6_3  and  S2_58 
REMARK    6 I    between atoms: S_4  and  O2_6 
REMARK    7 I    between atoms: O3_5  and  C3_81 
REMARK    8 I    between atoms: O2_6  and  C2_11 
REMARK    9 I    between atoms: C6_7  and  C5_54 
REMARK   10 I    between atoms: O4_9  and  C4_32 
REMARK   11 I    between atoms: O4_9  and  C1_39 
REMARK   12 I    between atoms: O3_12  and  C3_18 
REMARK   13 I    between atoms: N_13  and  C2_52 
REMARK   14 I    between atoms: N_13  and  S1_45 
REMARK   15 I    between atoms: O3_17  and  C3_83 
REMARK   16 I    between atoms: C4_20  and  O4_44 
REMARK   17 I    between atoms: N_21  and  C2_66 
REMARK   18 I    between atoms: N_21  and  S1_53 
REMARK   19 I    between atoms: O3_22  and  C3_65 
REMARK   20 I    between atoms: C4_23  and  O4_74 
REMARK   21 I    between atoms: C1_25  and  O1_72 
REMARK   22 I    between atoms: C2_28  and  O2_69 
REMARK   23 I    between atoms: C4_33  and  O4_61 
REMARK   24 I    between atoms: O2S_34  and  S1_45 
REMARK   25 I    between atoms: C6_37  and  C5_47 
REMARK   26 I    between atoms: O2_38  and  C2_77 
REMARK   27 I    between atoms: O2_38  and  S_50 
REMARK   28 I    between atoms: O3S_40  and  S1_53 
REMARK   29 I    between atoms: O1S_42  and  S1_45 
REMARK   30 I    between atoms: O1S_43  and  S1_53 
REMARK   31 I    between atoms: O4_44  and  C1_46 
REMARK   32 I    between atoms: S1_45  and  O3S_60 
REMARK   33 I    between atoms: C6_48  and  C5_84 
REMARK   34 I    between atoms: C6_51  and  C5_87 
REMARK   35 I    between atoms: S1_53  and  O2S_55 
REMARK   36 I    between atoms: C1_56  and  O4_74 
REMARK   37 I    between atoms: O6_57  and  S2_82 
REMARK   38 I    between atoms: O4_61  and  C1_70 
REMARK   39 I    between atoms: C3_63  and  O3_79 
REMARK   40 I    between atoms: O2_69  and  S_76 
ROOT
ATOM      1  C3  IDS d 504     -18.002  51.604 176.290  0.00  0.00     0.185 C 
ATOM      2  C4  IDS d 504     -16.762  50.822 175.886  0.00  0.00     0.195 C 
ATOM      3  C1  IDS d 504     -18.996  50.969 174.006  0.00  0.00     0.294 C 
ATOM      4  O5  IDS d 504     -17.757  50.297 173.757  0.00  0.00    -0.340 OA
ATOM      5  C2  IDS d 504     -18.835  52.070 175.035  0.00  0.00     0.231 C 
ATOM      6  C5  IDS d 504     -17.167  49.725 174.903  0.00  0.00     0.257 C 
ENDROOT
BRANCH   2   7
ATOM      7  O4  IDS d 504     -15.828  51.703 175.278  0.00  0.00    -0.348 OA
BRANCH   7   8
ATOM      8  C1  SGN d 505     -15.012  52.383 176.193  0.00  0.00     0.282 C 
ATOM      9  O5  SGN d 505     -14.078  51.508 176.758  0.00  0.00    -0.349 OA
ATOM     10  C5  SGN d 505     -13.168  50.987 175.838  0.00  0.00     0.181 C 
ATOM     11  C4  SGN d 505     -12.316  52.078 175.275  0.00  0.00     0.186 C 
ATOM     12  C3  SGN d 505     -13.269  53.031 174.498  0.00  0.00     0.173 C 
ATOM     13  C2  SGN d 505     -14.286  53.541 175.537  0.00  0.00     0.157 C 
BRANCH  10  14
ATOM     14  C6  SGN d 505     -12.376  49.953 176.571  0.00  0.00     0.227 C 
BRANCH  14  15
ATOM     15  O6  SGN d 505     -13.241  48.881 176.733  0.00  0.00    -0.254 OA
BRANCH  15  16
ATOM     16  S2  SGN d 505     -13.723  48.276 178.044  0.00  0.00     0.251 S 
ATOM     17  O5S SGN d 505     -15.157  48.424 178.005  0.00  0.00    -0.572 OA
ATOM     18  O4S SGN d 505     -13.068  49.055 179.071  0.00  0.00    -0.572 OA
ATOM     19  O6S SGN d 505     -13.306  46.881 178.045  0.00  0.00    -0.572 OA
ENDBRANCH  15  16
ENDBRANCH  14  15
ENDBRANCH  10  14
BRANCH  11  20
ATOM     20  O4  SGN d 505     -11.330  51.433 174.496  0.00  0.00    -0.348 OA
BRANCH  20  21
ATOM     21  C1  IDS d 506     -10.018  51.871 174.403  0.00  0.00     0.294 C 
ATOM     22  C2  IDS d 506      -9.269  50.988 173.396  0.00  0.00     0.231 C 
ATOM     23  C3  IDS d 506      -7.726  51.158 173.455  0.00  0.00     0.185 C 
ATOM     24  C4  IDS d 506      -7.177  51.353 174.885  0.00  0.00     0.189 C 
ATOM     25  C5  IDS d 506      -8.124  52.227 175.715  0.00  0.00     0.256 C 
ATOM     26  O5  IDS d 506      -9.415  51.715 175.663  0.00  0.00    -0.340 OA
BRANCH  22  27
ATOM     27  O2  IDS d 506      -9.540  49.623 173.649  0.00  0.00    -0.244 OA
BRANCH  27  28
ATOM     28  S   IDS d 506     -10.207  48.555 172.680  0.00  0.00     0.252 S 
ATOM     29  O1S IDS d 506      -9.914  49.019 171.359  0.00  0.00    -0.572 OA
ATOM     30  O2S IDS d 506      -9.592  47.282 172.928  0.00  0.00    -0.572 OA
ATOM     31  O3S IDS d 506     -11.620  48.578 172.992  0.00  0.00    -0.572 OA
ENDBRANCH  27  28
ENDBRANCH  22  27
BRANCH  23  32
ATOM     32  O3  IDS d 506      -7.366  52.294 172.673  0.00  0.00    -0.390 OA
ATOM     33  H   IDS d 506      -7.733  52.201 171.780  0.00  0.00     0.210 HD
ENDBRANCH  23  32
BRANCH  24  34
ATOM     34  O4  IDS d 506      -7.073  50.077 175.470  0.00  0.00    -0.390 OA
ATOM     35  H   IDS d 506      -7.960  49.735 175.662  0.00  0.00     0.210 HD
ENDBRANCH  24  34
BRANCH  25  36
ATOM     36  C6  IDS d 506      -7.735  52.465 177.162  0.00  0.00     0.206 C 
ATOM     37  O62 IDS d 506      -7.658  51.555 177.969  0.00  0.00    -0.646 OA
ATOM     38  O61 IDS d 506      -7.471  53.596 177.546  0.00  0.00    -0.646 OA
ENDBRANCH  25  36
ENDBRANCH  20  21
ENDBRANCH  11  20
BRANCH  12  39
ATOM     39  O3  SGN d 505     -12.551  54.145 173.984  0.00  0.00    -0.391 OA
ATOM     40  H   SGN d 505     -11.937  53.845 173.295  0.00  0.00     0.210 HD
ENDBRANCH  12  39
BRANCH  13  41
ATOM     41  N   SGN d 505     -15.279  54.516 175.028  0.00  0.00    -0.210 NA
ATOM     42  H   SGN d 505     -16.053  53.984 174.630  0.00  0.00     0.140 HD
BRANCH  41  43
ATOM     43  S1  SGN d 505     -15.930  55.603 176.124  0.00  0.00     0.156 S 
BRANCH  43  44
ATOM     44  O3S SGN d 505     -16.301  56.760 175.390  0.00  0.00    -0.296 OA
ATOM     45  H   SGN d 505     -16.720  56.493 174.557  0.00  0.00     0.231 HD
ENDBRANCH  43  44
BRANCH  43  46
ATOM     46  O1S SGN d 505     -17.054  54.957 176.767  0.00  0.00    -0.296 OA
ATOM     47  H   SGN d 505     -17.046  54.010 176.557  0.00  0.00     0.231 HD
ENDBRANCH  43  46
BRANCH  43  48
ATOM     48  O2S SGN d 505     -14.856  55.888 177.047  0.00  0.00    -0.296 OA
ATOM     49  H   SGN d 505     -15.197  55.875 177.955  0.00  0.00     0.231 HD
ENDBRANCH  43  48
ENDBRANCH  41  43
ENDBRANCH  13  41
ENDBRANCH   7   8
ENDBRANCH   2   7
BRANCH   1  50
ATOM     50  O3  IDS d 504     -18.795  50.742 177.096  0.00  0.00    -0.390 OA
ATOM     51  H   IDS d 504     -18.809  49.855 176.704  0.00  0.00     0.210 HD
ENDBRANCH   1  50
BRANCH   6  52
ATOM     52  C6  IDS d 504     -16.040  48.760 174.501  0.00  0.00     0.206 C 
ATOM     53  O62 IDS d 504     -15.159  49.103 173.709  0.00  0.00    -0.646 OA
ATOM     54  O61 IDS d 504     -15.999  47.620 174.945  0.00  0.00    -0.646 OA
ENDBRANCH   6  52
BRANCH   5  55
ATOM     55  O2  IDS d 504     -18.205  53.184 174.404  0.00  0.00    -0.244 OA
BRANCH  55  56
ATOM     56  S   IDS d 504     -18.900  54.442 173.851  0.00  0.00     0.252 S 
ATOM     57  O2S IDS d 504     -19.861  54.014 172.878  0.00  0.00    -0.572 OA
ATOM     58  O3S IDS d 504     -19.450  55.052 175.003  0.00  0.00    -0.572 OA
ATOM     59  O1S IDS d 504     -17.882  55.236 173.266  0.00  0.00    -0.572 OA
ENDBRANCH  55  56
ENDBRANCH   5  55
BRANCH   3  60
ATOM     60  O4  SGN d 503     -19.998  50.099 174.448  0.00  0.00    -0.348 OA
BRANCH  60  61
ATOM     61  C4  SGN d 503     -20.753  49.537 173.424  0.00  0.00     0.186 C 
ATOM     62  C5  SGN d 503     -22.237  49.858 173.672  0.00  0.00     0.181 C 
ATOM     63  O5  SGN d 503     -23.049  49.229 172.731  0.00  0.00    -0.349 OA
ATOM     64  C1  SGN d 503     -22.961  47.826 172.766  0.00  0.00     0.282 C 
ATOM     65  C2  SGN d 503     -21.518  47.395 172.466  0.00  0.00     0.157 C 
ATOM     66  C3  SGN d 503     -20.533  48.027 173.432  0.00  0.00     0.173 C 
BRANCH  62  67
ATOM     67  C6  SGN d 503     -22.585  51.318 173.558  0.00  0.00     0.227 C 
BRANCH  67  68
ATOM     68  O6  SGN d 503     -22.817  51.803 174.863  0.00  0.00    -0.254 OA
BRANCH  68  69
ATOM     69  S2  SGN d 503     -23.635  53.070 175.223  0.00  0.00     0.251 S 
ATOM     70  O6S SGN d 503     -22.718  53.872 175.935  0.00  0.00    -0.572 OA
ATOM     71  O4S SGN d 503     -24.013  53.717 174.013  0.00  0.00    -0.572 OA
ATOM     72  O5S SGN d 503     -24.795  52.627 175.990  0.00  0.00    -0.572 OA
ENDBRANCH  68  69
ENDBRANCH  67  68
ENDBRANCH  62  67
BRANCH  64  73
ATOM     73  O4  IDS d 502     -23.390  47.317 173.999  0.00  0.00    -0.348 OA
BRANCH  73  74
ATOM     74  C4  IDS d 502     -24.745  46.954 174.047  0.00  0.00     0.195 C 
ATOM     75  C3  IDS d 502     -24.879  45.430 173.861  0.00  0.00     0.185 C 
ATOM     76  C2  IDS d 502     -24.346  44.680 175.085  0.00  0.00     0.231 C 
ATOM     77  C1  IDS d 502     -24.894  45.253 176.387  0.00  0.00     0.291 C 
ATOM     78  O5  IDS d 502     -24.720  46.647 176.446  0.00  0.00    -0.340 OA
ATOM     79  C5  IDS d 502     -25.335  47.365 175.394  0.00  0.00     0.257 C 
BRANCH  75  80
ATOM     80  O3  IDS d 502     -26.247  45.105 173.709  0.00  0.00    -0.390 OA
ATOM     81  H   IDS d 502     -26.678  45.107 174.578  0.00  0.00     0.210 HD
ENDBRANCH  75  80
BRANCH  76  82
ATOM     82  O2  IDS d 502     -22.952  44.835 175.093  0.00  0.00    -0.244 OA
BRANCH  82  83
ATOM     83  S   IDS d 502     -21.864  43.735 174.864  0.00  0.00     0.252 S 
ATOM     84  O3S IDS d 502     -21.977  42.863 176.004  0.00  0.00    -0.572 OA
ATOM     85  O2S IDS d 502     -20.603  44.436 174.789  0.00  0.00    -0.572 OA
ATOM     86  O1S IDS d 502     -22.189  43.064 173.636  0.00  0.00    -0.572 OA
ENDBRANCH  82  83
ENDBRANCH  76  82
BRANCH  77  87
ATOM     87  O1  IDS d 502     -26.240  44.873 176.494  0.00  0.00    -0.368 OA
ATOM     88  H   IDS d 502     -26.292  43.940 176.757  0.00  0.00     0.212 HD
ENDBRANCH  77  87
BRANCH  79  89
ATOM     89  C6  IDS d 502     -25.287  48.862 175.666  0.00  0.00     0.206 C 
ATOM     90  O61 IDS d 502     -24.713  49.306 176.630  0.00  0.00    -0.646 OA
ATOM     91  O62 IDS d 502     -25.823  49.652 174.913  0.00  0.00    -0.646 OA
ENDBRANCH  79  89
ENDBRANCH  73  74
ENDBRANCH  64  73
BRANCH  65  92
ATOM     92  N   SGN d 503     -21.409  45.947 172.469  0.00  0.00    -0.210 NA
ATOM     93  H   SGN d 503     -22.350  45.570 172.586  0.00  0.00     0.140 HD
BRANCH  92  94
ATOM     94  S1  SGN d 503     -20.760  45.237 171.157  0.00  0.00     0.156 S 
BRANCH  94  95
ATOM     95  O2S SGN d 503     -21.849  44.857 170.258  0.00  0.00    -0.296 OA
ATOM     96  H   SGN d 503     -21.637  44.010 169.834  0.00  0.00     0.231 HD
ENDBRANCH  94  95
BRANCH  94  97
ATOM     97  O1S SGN d 503     -20.026  44.084 171.642  0.00  0.00    -0.296 OA
ATOM     98  H   SGN d 503     -19.117  44.114 171.304  0.00  0.00     0.231 HD
ENDBRANCH  94  97
BRANCH  94  99
ATOM     99  O3S SGN d 503     -19.891  46.261 170.622  0.00  0.00    -0.296 OA
ATOM    100  H   SGN d 503     -19.916  47.039 171.200  0.00  0.00     0.231 HD
ENDBRANCH  94  99
ENDBRANCH  92  94
ENDBRANCH  65  92
BRANCH  66 101
ATOM    101  O3  SGN d 503     -19.208  47.772 173.004  0.00  0.00    -0.391 OA
ATOM    102  H   SGN d 503     -18.596  47.917 173.742  0.00  0.00     0.210 HD
ENDBRANCH  66 101
ENDBRANCH  60  61
ENDBRANCH   3  60
TORSDOF 40
ENDMDL
MODEL 22
REMARK VINA RESULT:      -3.3      1.715      3.221
REMARK WARNING: 32 MAX_TORS EXCEEDED!!!
REMARK  40 active torsions:
REMARK  status: ('A' for Active; 'I' for Inactive)
REMARK    1 I    between atoms: C6_1  and  C5_8 
REMARK    2 I    between atoms: C6_1  and  O6_57 
REMARK    3 I    between atoms: O4_2  and  C4_49 
REMARK    4 I    between atoms: O6_3  and  C6_7 
REMARK    5 I    between atoms: O6_3  and  S2_58 
REMARK    6 I    between atoms: S_4  and  O2_6 
REMARK    7 I    between atoms: O3_5  and  C3_81 
REMARK    8 I    between atoms: O2_6  and  C2_11 
REMARK    9 I    between atoms: C6_7  and  C5_54 
REMARK   10 I    between atoms: O4_9  and  C4_32 
REMARK   11 I    between atoms: O4_9  and  C1_39 
REMARK   12 I    between atoms: O3_12  and  C3_18 
REMARK   13 I    between atoms: N_13  and  C2_52 
REMARK   14 I    between atoms: N_13  and  S1_45 
REMARK   15 I    between atoms: O3_17  and  C3_83 
REMARK   16 I    between atoms: C4_20  and  O4_44 
REMARK   17 I    between atoms: N_21  and  C2_66 
REMARK   18 I    between atoms: N_21  and  S1_53 
REMARK   19 I    between atoms: O3_22  and  C3_65 
REMARK   20 I    between atoms: C4_23  and  O4_74 
REMARK   21 I    between atoms: C1_25  and  O1_72 
REMARK   22 I    between atoms: C2_28  and  O2_69 
REMARK   23 I    between atoms: C4_33  and  O4_61 
REMARK   24 I    between atoms: O2S_34  and  S1_45 
REMARK   25 I    between atoms: C6_37  and  C5_47 
REMARK   26 I    between atoms: O2_38  and  C2_77 
REMARK   27 I    between atoms: O2_38  and  S_50 
REMARK   28 I    between atoms: O3S_40  and  S1_53 
REMARK   29 I    between atoms: O1S_42  and  S1_45 
REMARK   30 I    between atoms: O1S_43  and  S1_53 
REMARK   31 I    between atoms: O4_44  and  C1_46 
REMARK   32 I    between atoms: S1_45  and  O3S_60 
REMARK   33 I    between atoms: C6_48  and  C5_84 
REMARK   34 I    between atoms: C6_51  and  C5_87 
REMARK   35 I    between atoms: S1_53  and  O2S_55 
REMARK   36 I    between atoms: C1_56  and  O4_74 
REMARK   37 I    between atoms: O6_57  and  S2_82 
REMARK   38 I    between atoms: O4_61  and  C1_70 
REMARK   39 I    between atoms: C3_63  and  O3_79 
REMARK   40 I    between atoms: O2_69  and  S_76 
ROOT
ATOM      1  C3  IDS d 504     -16.867  50.096 175.043  0.00  0.00     0.185 C 
ATOM      2  C4  IDS d 504     -16.126  49.812 173.746  0.00  0.00     0.195 C 
ATOM      3  C1  IDS d 504     -16.473  52.594 174.576  0.00  0.00     0.294 C 
ATOM      4  O5  IDS d 504     -15.776  52.168 173.400  0.00  0.00    -0.340 OA
ATOM      5  C2  IDS d 504     -16.490  51.509 175.634  0.00  0.00     0.231 C 
ATOM      6  C5  IDS d 504     -16.300  51.003 172.805  0.00  0.00     0.257 C 
ENDROOT
BRANCH   2   7
ATOM      7  O4  IDS d 504     -14.749  49.607 174.027  0.00  0.00    -0.348 OA
BRANCH   7   8
ATOM      8  C1  SGN d 505     -14.446  48.309 174.461  0.00  0.00     0.282 C 
ATOM      9  O5  SGN d 505     -14.432  47.423 173.377  0.00  0.00    -0.349 OA
ATOM     10  C5  SGN d 505     -13.431  47.694 172.444  0.00  0.00     0.181 C 
ATOM     11  C4  SGN d 505     -12.082  47.503 173.058  0.00  0.00     0.186 C 
ATOM     12  C3  SGN d 505     -11.957  48.560 174.194  0.00  0.00     0.173 C 
ATOM     13  C2  SGN d 505     -13.109  48.258 175.173  0.00  0.00     0.157 C 
BRANCH  10  14
ATOM     14  C6  SGN d 505     -13.676  46.778 171.289  0.00  0.00     0.227 C 
BRANCH  14  15
ATOM     15  O6  SGN d 505     -13.919  47.613 170.209  0.00  0.00    -0.254 OA
BRANCH  15  16
ATOM     16  S2  SGN d 505     -14.533  47.232 168.870  0.00  0.00     0.251 S 
ATOM     17  O5S SGN d 505     -15.909  46.932 169.174  0.00  0.00    -0.572 OA
ATOM     18  O4S SGN d 505     -13.758  46.098 168.420  0.00  0.00    -0.572 OA
ATOM     19  O6S SGN d 505     -14.395  48.390 167.996  0.00  0.00    -0.572 OA
ENDBRANCH  15  16
ENDBRANCH  14  15
ENDBRANCH  10  14
BRANCH  11  20
ATOM     20  O4  SGN d 505     -11.155  47.634 172.000  0.00  0.00    -0.348 OA
BRANCH  20  21
ATOM     21  C1  IDS d 506      -9.958  46.938 171.940  0.00  0.00     0.294 C 
ATOM     22  C2  IDS d 506      -9.157  47.431 170.726  0.00  0.00     0.231 C 
ATOM     23  C3  IDS d 506      -7.965  46.505 170.358  0.00  0.00     0.185 C 
ATOM     24  C4  IDS d 506      -8.268  45.002 170.538  0.00  0.00     0.189 C 
ATOM     25  C5  IDS d 506      -9.123  44.767 171.788  0.00  0.00     0.256 C 
ATOM     26  O5  IDS d 506     -10.251  45.577 171.753  0.00  0.00    -0.340 OA
BRANCH  22  27
ATOM     27  O2  IDS d 506      -9.992  47.496 169.587  0.00  0.00    -0.244 OA
BRANCH  27  28
ATOM     28  S   IDS d 506      -9.671  48.130 168.165  0.00  0.00     0.252 S 
ATOM     29  O1S IDS d 506      -8.944  47.117 167.463  0.00  0.00    -0.572 OA
ATOM     30  O2S IDS d 506     -10.916  48.418 167.513  0.00  0.00    -0.572 OA
ATOM     31  O3S IDS d 506      -8.881  49.312 168.438  0.00  0.00    -0.572 OA
ENDBRANCH  27  28
ENDBRANCH  22  27
BRANCH  23  32
ATOM     32  O3  IDS d 506      -6.855  46.846 171.183  0.00  0.00    -0.390 OA
ATOM     33  H   IDS d 506      -7.173  47.108 172.062  0.00  0.00     0.210 HD
ENDBRANCH  23  32
BRANCH  24  34
ATOM     34  O4  IDS d 506      -8.970  44.576 169.394  0.00  0.00    -0.390 OA
ATOM     35  H   IDS d 506      -8.524  43.806 169.009  0.00  0.00     0.210 HD
ENDBRANCH  24  34
BRANCH  25  36
ATOM     36  C6  IDS d 506      -9.539  43.335 172.066  0.00  0.00     0.206 C 
ATOM     37  O62 IDS d 506      -9.835  42.562 171.171  0.00  0.00    -0.646 OA
ATOM     38  O61 IDS d 506      -9.570  42.919 173.216  0.00  0.00    -0.646 OA
ENDBRANCH  25  36
ENDBRANCH  20  21
ENDBRANCH  11  20
BRANCH  12  39
ATOM     39  O3  SGN d 505     -10.725  48.406 174.886  0.00  0.00    -0.391 OA
ATOM     40  H   SGN d 505     -10.817  48.743 175.791  0.00  0.00     0.210 HD
ENDBRANCH  12  39
BRANCH  13  41
ATOM     41  N   SGN d 505     -13.161  49.120 176.376  0.00  0.00    -0.210 NA
ATOM     42  H   SGN d 505     -13.794  49.893 176.170  0.00  0.00     0.140 HD
BRANCH  41  43
ATOM     43  S1  SGN d 505     -13.675  48.419 177.809  0.00  0.00     0.156 S 
BRANCH  43  44
ATOM     44  O3S SGN d 505     -15.089  48.538 177.844  0.00  0.00    -0.296 OA
ATOM     45  H   SGN d 505     -15.491  47.685 177.617  0.00  0.00     0.231 HD
ENDBRANCH  43  44
BRANCH  43  46
ATOM     46  O1S SGN d 505     -13.223  47.043 177.810  0.00  0.00    -0.296 OA
ATOM     47  H   SGN d 505     -13.908  46.479 178.199  0.00  0.00     0.231 HD
ENDBRANCH  43  46
BRANCH  43  48
ATOM     48  O2S SGN d 505     -13.055  49.204 178.850  0.00  0.00    -0.296 OA
ATOM     49  H   SGN d 505     -13.395  48.923 179.714  0.00  0.00     0.231 HD
ENDBRANCH  43  48
ENDBRANCH  41  43
ENDBRANCH  13  41
ENDBRANCH   7   8
ENDBRANCH   2   7
BRANCH   1  50
ATOM     50  O3  IDS d 504     -18.258  50.059 174.747  0.00  0.00    -0.390 OA
ATOM     51  H   IDS d 504     -18.662  49.296 175.190  0.00  0.00     0.210 HD
ENDBRANCH   1  50
BRANCH   6  52
ATOM     52  C6  IDS d 504     -15.717  50.811 171.395  0.00  0.00     0.206 C 
ATOM     53  O62 IDS d 504     -15.841  49.742 170.794  0.00  0.00    -0.646 OA
ATOM     54  O61 IDS d 504     -15.098  51.711 170.842  0.00  0.00    -0.646 OA
ENDBRANCH   6  52
BRANCH   5  55
ATOM     55  O2  IDS d 504     -15.205  51.465 176.251  0.00  0.00    -0.244 OA
BRANCH  55  56
ATOM     56  S   IDS d 504     -14.812  52.085 177.604  0.00  0.00     0.252 S 
ATOM     57  O2S IDS d 504     -13.389  51.970 177.737  0.00  0.00    -0.572 OA
ATOM     58  O3S IDS d 504     -15.297  53.411 177.516  0.00  0.00    -0.572 OA
ATOM     59  O1S IDS d 504     -15.491  51.338 178.599  0.00  0.00    -0.572 OA
ENDBRANCH  55  56
ENDBRANCH   5  55
BRANCH   3  60
ATOM     60  O4  SGN d 503     -17.794  52.969 174.309  0.00  0.00    -0.348 OA
BRANCH  60  61
ATOM     61  C4  SGN d 503     -17.957  54.326 174.056  0.00  0.00     0.186 C 
ATOM     62  C5  SGN d 503     -19.446  54.602 173.787  0.00  0.00     0.181 C 
ATOM     63  O5  SGN d 503     -19.651  55.931 173.422  0.00  0.00    -0.349 OA
ATOM     64  C1  SGN d 503     -18.986  56.294 172.237  0.00  0.00     0.282 C 
ATOM     65  C2  SGN d 503     -17.473  56.113 172.423  0.00  0.00     0.157 C 
ATOM     66  C3  SGN d 503     -17.124  54.693 172.829  0.00  0.00     0.173 C 
BRANCH  62  67
ATOM     67  C6  SGN d 503     -20.342  54.394 174.978  0.00  0.00     0.227 C 
BRANCH  67  68
ATOM     68  O6  SGN d 503     -20.809  55.661 175.386  0.00  0.00    -0.254 OA
BRANCH  68  69
ATOM     69  S2  SGN d 503     -22.297  56.060 175.568  0.00  0.00     0.251 S 
ATOM     70  O6S SGN d 503     -22.232  57.317 176.206  0.00  0.00    -0.572 OA
ATOM     71  O4S SGN d 503     -22.885  56.196 174.279  0.00  0.00    -0.572 OA
ATOM     72  O5S SGN d 503     -22.931  55.002 176.348  0.00  0.00    -0.572 OA
ENDBRANCH  68  69
ENDBRANCH  67  68
ENDBRANCH  62  67
BRANCH  64  73
ATOM     73  O4  IDS d 502     -19.449  55.552 171.142  0.00  0.00    -0.348 OA
BRANCH  73  74
ATOM     74  C4  IDS d 502     -20.778  55.816 170.772  0.00  0.00     0.195 C 
ATOM     75  C3  IDS d 502     -20.817  57.019 169.811  0.00  0.00     0.185 C 
ATOM     76  C2  IDS d 502     -20.215  56.655 168.451  0.00  0.00     0.231 C 
ATOM     77  C1  IDS d 502     -20.775  55.341 167.914  0.00  0.00     0.291 C 
ATOM     78  O5  IDS d 502     -20.690  54.319 168.874  0.00  0.00    -0.340 OA
ATOM     79  C5  IDS d 502     -21.368  54.585 170.086  0.00  0.00     0.257 C 
BRANCH  75  80
ATOM     80  O3  IDS d 502     -22.164  57.400 169.606  0.00  0.00    -0.390 OA
ATOM     81  H   IDS d 502     -22.635  57.388 170.454  0.00  0.00     0.210 HD
ENDBRANCH  75  80
BRANCH  76  82
ATOM     82  O2  IDS d 502     -18.833  56.494 168.636  0.00  0.00    -0.244 OA
BRANCH  82  83
ATOM     83  S   IDS d 502     -17.680  57.374 168.051  0.00  0.00     0.252 S 
ATOM     84  O3S IDS d 502     -18.091  57.668 166.702  0.00  0.00    -0.572 OA
ATOM     85  O2S IDS d 502     -16.486  56.566 168.133  0.00  0.00    -0.572 OA
ATOM     86  O1S IDS d 502     -17.595  58.558 168.860  0.00  0.00    -0.572 OA
ENDBRANCH  82  83
ENDBRANCH  76  82
BRANCH  77  87
ATOM     87  O1  IDS d 502     -22.092  55.575 167.491  0.00  0.00    -0.368 OA
ATOM     88  H   IDS d 502     -22.706  55.076 168.053  0.00  0.00     0.212 HD
ENDBRANCH  77  87
BRANCH  79  89
ATOM     89  C6  IDS d 502     -21.411  53.342 170.964  0.00  0.00     0.206 C 
ATOM     90  O61 IDS d 502     -20.766  52.360 170.691  0.00  0.00    -0.646 OA
ATOM     91  O62 IDS d 502     -22.095  53.308 171.968  0.00  0.00    -0.646 OA
ENDBRANCH  79  89
ENDBRANCH  73  74
ENDBRANCH  64  73
BRANCH  65  92
ATOM     92  N   SGN d 503     -16.762  56.508 171.219  0.00  0.00    -0.210 NA
ATOM     93  H   SGN d 503     -17.367  57.148 170.704  0.00  0.00     0.140 HD
BRANCH  92  94
ATOM     94  S1  SGN d 503     -15.321  57.242 171.402  0.00  0.00     0.156 S 
BRANCH  94  95
ATOM     95  O2S SGN d 503     -15.249  58.351 170.451  0.00  0.00    -0.296 OA
ATOM     96  H   SGN d 503     -14.320  58.553 170.261  0.00  0.00     0.231 HD
ENDBRANCH  94  95
BRANCH  94  97
ATOM     97  O1S SGN d 503     -14.316  56.231 171.137  0.00  0.00    -0.296 OA
ATOM     98  H   SGN d 503     -13.646  56.250 171.838  0.00  0.00     0.231 HD
ENDBRANCH  94  97
BRANCH  94  99
ATOM     99  O3S SGN d 503     -15.335  57.659 172.786  0.00  0.00    -0.296 OA
ATOM    100  H   SGN d 503     -16.222  57.972 173.020  0.00  0.00     0.231 HD
ENDBRANCH  94  99
ENDBRANCH  92  94
ENDBRANCH  65  92
BRANCH  66 101
ATOM    101  O3  SGN d 503     -15.757  54.615 173.186  0.00  0.00    -0.391 OA
ATOM    102  H   SGN d 503     -15.567  55.262 173.882  0.00  0.00     0.210 HD
ENDBRANCH  66 101
ENDBRANCH  60  61
ENDBRANCH   3  60
TORSDOF 40
ENDMDL
MODEL 23
REMARK VINA RESULT:      -3.3      3.201     12.061
REMARK WARNING: 32 MAX_TORS EXCEEDED!!!
REMARK  40 active torsions:
REMARK  status: ('A' for Active; 'I' for Inactive)
REMARK    1 I    between atoms: C6_1  and  C5_8 
REMARK    2 I    between atoms: C6_1  and  O6_57 
REMARK    3 I    between atoms: O4_2  and  C4_49 
REMARK    4 I    between atoms: O6_3  and  C6_7 
REMARK    5 I    between atoms: O6_3  and  S2_58 
REMARK    6 I    between atoms: S_4  and  O2_6 
REMARK    7 I    between atoms: O3_5  and  C3_81 
REMARK    8 I    between atoms: O2_6  and  C2_11 
REMARK    9 I    between atoms: C6_7  and  C5_54 
REMARK   10 I    between atoms: O4_9  and  C4_32 
REMARK   11 I    between atoms: O4_9  and  C1_39 
REMARK   12 I    between atoms: O3_12  and  C3_18 
REMARK   13 I    between atoms: N_13  and  C2_52 
REMARK   14 I    between atoms: N_13  and  S1_45 
REMARK   15 I    between atoms: O3_17  and  C3_83 
REMARK   16 I    between atoms: C4_20  and  O4_44 
REMARK   17 I    between atoms: N_21  and  C2_66 
REMARK   18 I    between atoms: N_21  and  S1_53 
REMARK   19 I    between atoms: O3_22  and  C3_65 
REMARK   20 I    between atoms: C4_23  and  O4_74 
REMARK   21 I    between atoms: C1_25  and  O1_72 
REMARK   22 I    between atoms: C2_28  and  O2_69 
REMARK   23 I    between atoms: C4_33  and  O4_61 
REMARK   24 I    between atoms: O2S_34  and  S1_45 
REMARK   25 I    between atoms: C6_37  and  C5_47 
REMARK   26 I    between atoms: O2_38  and  C2_77 
REMARK   27 I    between atoms: O2_38  and  S_50 
REMARK   28 I    between atoms: O3S_40  and  S1_53 
REMARK   29 I    between atoms: O1S_42  and  S1_45 
REMARK   30 I    between atoms: O1S_43  and  S1_53 
REMARK   31 I    between atoms: O4_44  and  C1_46 
REMARK   32 I    between atoms: S1_45  and  O3S_60 
REMARK   33 I    between atoms: C6_48  and  C5_84 
REMARK   34 I    between atoms: C6_51  and  C5_87 
REMARK   35 I    between atoms: S1_53  and  O2S_55 
REMARK   36 I    between atoms: C1_56  and  O4_74 
REMARK   37 I    between atoms: O6_57  and  S2_82 
REMARK   38 I    between atoms: O4_61  and  C1_70 
REMARK   39 I    between atoms: C3_63  and  O3_79 
REMARK   40 I    between atoms: O2_69  and  S_76 
ROOT
ATOM      1  C3  IDS d 504     -15.781  52.332 173.345  0.00  0.00     0.185 C 
ATOM      2  C4  IDS d 504     -16.872  51.459 172.745  0.00  0.00     0.195 C 
ATOM      3  C1  IDS d 504     -14.945  50.231 174.568  0.00  0.00     0.294 C 
ATOM      4  O5  IDS d 504     -16.040  49.548 173.950  0.00  0.00    -0.340 OA
ATOM      5  C2  IDS d 504     -15.210  51.719 174.681  0.00  0.00     0.231 C 
ATOM      6  C5  IDS d 504     -16.366  50.020 172.663  0.00  0.00     0.257 C 
ENDROOT
BRANCH   2   7
ATOM      7  O4  IDS d 504     -18.030  51.523 173.566  0.00  0.00    -0.348 OA
BRANCH   7   8
ATOM      8  C1  SGN d 505     -19.007  52.413 173.099  0.00  0.00     0.282 C 
ATOM      9  O5  SGN d 505     -19.836  51.780 172.164  0.00  0.00    -0.349 OA
ATOM     10  C5  SGN d 505     -20.583  50.730 172.697  0.00  0.00     0.181 C 
ATOM     11  C4  SGN d 505     -21.548  51.242 173.716  0.00  0.00     0.186 C 
ATOM     12  C3  SGN d 505     -20.696  51.840 174.873  0.00  0.00     0.173 C 
ATOM     13  C2  SGN d 505     -19.852  52.959 174.233  0.00  0.00     0.157 C 
BRANCH  10  14
ATOM     14  C6  SGN d 505     -21.258  50.068 171.540  0.00  0.00     0.227 C 
BRANCH  14  15
ATOM     15  O6  SGN d 505     -21.454  51.077 170.608  0.00  0.00    -0.254 OA
BRANCH  15  16
ATOM     16  S2  SGN d 505     -22.140  50.961 169.255  0.00  0.00     0.251 S 
ATOM     17  O5S SGN d 505     -21.810  49.634 168.795  0.00  0.00    -0.572 OA
ATOM     18  O4S SGN d 505     -21.572  52.028 168.462  0.00  0.00    -0.572 OA
ATOM     19  O6S SGN d 505     -23.567  51.131 169.487  0.00  0.00    -0.572 OA
ENDBRANCH  15  16
ENDBRANCH  14  15
ENDBRANCH  10  14
BRANCH  11  20
ATOM     20  O4  SGN d 505     -22.360  50.141 174.064  0.00  0.00    -0.348 OA
BRANCH  20  21
ATOM     21  C1  IDS d 506     -23.714  50.245 174.344  0.00  0.00     0.294 C 
ATOM     22  C2  IDS d 506     -24.255  48.855 174.710  0.00  0.00     0.231 C 
ATOM     23  C3  IDS d 506     -25.807  48.780 174.714  0.00  0.00     0.185 C 
ATOM     24  C4  IDS d 506     -26.471  49.608 173.594  0.00  0.00     0.189 C 
ATOM     25  C5  IDS d 506     -25.723  50.927 173.378  0.00  0.00     0.256 C 
ATOM     26  O5  IDS d 506     -24.369  50.682 173.181  0.00  0.00    -0.340 OA
BRANCH  22  27
ATOM     27  O2  IDS d 506     -23.800  47.895 173.776  0.00  0.00    -0.244 OA
BRANCH  27  28
ATOM     28  S   IDS d 506     -22.836  46.658 174.027  0.00  0.00     0.252 S 
ATOM     29  O1S IDS d 506     -22.581  46.664 175.435  0.00  0.00    -0.572 OA
ATOM     30  O2S IDS d 506     -23.529  45.464 173.634  0.00  0.00    -0.572 OA
ATOM     31  O3S IDS d 506     -21.655  46.920 173.233  0.00  0.00    -0.572 OA
ENDBRANCH  27  28
ENDBRANCH  22  27
BRANCH  23  32
ATOM     32  O3  IDS d 506     -26.280  49.255 175.971  0.00  0.00    -0.390 OA
ATOM     33  H   IDS d 506     -26.275  48.529 176.615  0.00  0.00     0.210 HD
ENDBRANCH  23  32
BRANCH  24  34
ATOM     34  O4  IDS d 506     -26.423  48.836 172.417  0.00  0.00    -0.390 OA
ATOM     35  H   IDS d 506     -27.253  48.344 172.318  0.00  0.00     0.210 HD
ENDBRANCH  24  34
BRANCH  25  36
ATOM     36  C6  IDS d 506     -26.238  51.827 172.270  0.00  0.00     0.206 C 
ATOM     37  O62 IDS d 506     -26.418  53.021 172.438  0.00  0.00    -0.646 OA
ATOM     38  O61 IDS d 506     -26.471  51.361 171.163  0.00  0.00    -0.646 OA
ENDBRANCH  25  36
ENDBRANCH  20  21
ENDBRANCH  11  20
BRANCH  12  39
ATOM     39  O3  SGN d 505     -21.537  52.420 175.863  0.00  0.00    -0.391 OA
ATOM     40  H   SGN d 505     -22.022  51.719 176.326  0.00  0.00     0.210 HD
ENDBRANCH  12  39
BRANCH  13  41
ATOM     41  N   SGN d 505     -18.985  53.713 175.169  0.00  0.00    -0.210 NA
ATOM     42  H   SGN d 505     -18.032  53.665 174.809  0.00  0.00     0.140 HD
BRANCH  41  43
ATOM     43  S1  SGN d 505     -19.344  55.331 175.423  0.00  0.00     0.156 S 
BRANCH  43  44
ATOM     44  O3S SGN d 505     -18.372  55.833 176.327  0.00  0.00    -0.296 OA
ATOM     45  H   SGN d 505     -18.462  56.797 176.396  0.00  0.00     0.231 HD
ENDBRANCH  43  44
BRANCH  43  46
ATOM     46  O1S SGN d 505     -19.315  55.993 174.135  0.00  0.00    -0.296 OA
ATOM     47  H   SGN d 505     -18.426  55.920 173.755  0.00  0.00     0.231 HD
ENDBRANCH  43  46
BRANCH  43  48
ATOM     48  O2S SGN d 505     -20.662  55.331 176.013  0.00  0.00    -0.296 OA
ATOM     49  H   SGN d 505     -20.867  56.219 176.345  0.00  0.00     0.231 HD
ENDBRANCH  43  48
ENDBRANCH  41  43
ENDBRANCH  13  41
ENDBRANCH   7   8
ENDBRANCH   2   7
BRANCH   1  50
ATOM     50  O3  IDS d 504     -14.741  52.424 172.380  0.00  0.00    -0.390 OA
ATOM     51  H   IDS d 504     -14.102  51.709 172.525  0.00  0.00     0.210 HD
ENDBRANCH   1  50
BRANCH   6  52
ATOM     52  C6  IDS d 504     -17.310  49.036 171.952  0.00  0.00     0.206 C 
ATOM     53  O62 IDS d 504     -17.301  48.918 170.725  0.00  0.00    -0.646 OA
ATOM     54  O61 IDS d 504     -18.107  48.358 172.588  0.00  0.00    -0.646 OA
ENDBRANCH   6  52
BRANCH   5  55
ATOM     55  O2  IDS d 504     -16.122  51.931 175.757  0.00  0.00    -0.244 OA
BRANCH  55  56
ATOM     56  S   IDS d 504     -15.808  52.590 177.113  0.00  0.00     0.252 S 
ATOM     57  O2S IDS d 504     -14.385  52.737 177.204  0.00  0.00    -0.572 OA
ATOM     58  O3S IDS d 504     -16.531  53.806 177.067  0.00  0.00    -0.572 OA
ATOM     59  O1S IDS d 504     -16.308  51.714 178.109  0.00  0.00    -0.572 OA
ENDBRANCH  55  56
ENDBRANCH   5  55
BRANCH   3  60
ATOM     60  O4  SGN d 503     -13.742  50.050 173.877  0.00  0.00    -0.348 OA
BRANCH  60  61
ATOM     61  C4  SGN d 503     -13.197  48.778 174.012  0.00  0.00     0.186 C 
ATOM     62  C5  SGN d 503     -11.908  48.880 174.845  0.00  0.00     0.181 C 
ATOM     63  O5  SGN d 503     -11.263  47.647 174.922  0.00  0.00    -0.349 OA
ATOM     64  C1  SGN d 503     -10.859  47.150 173.671  0.00  0.00     0.282 C 
ATOM     65  C2  SGN d 503     -12.090  46.951 172.776  0.00  0.00     0.157 C 
ATOM     66  C3  SGN d 503     -12.882  48.236 172.620  0.00  0.00     0.173 C 
BRANCH  62  67
ATOM     67  C6  SGN d 503     -12.123  49.285 176.278  0.00  0.00     0.227 C 
BRANCH  67  68
ATOM     68  O6  SGN d 503     -12.983  48.332 176.865  0.00  0.00    -0.254 OA
BRANCH  68  69
ATOM     69  S2  SGN d 503     -13.934  48.591 178.063  0.00  0.00     0.251 S 
ATOM     70  O6S SGN d 503     -15.222  48.508 177.492  0.00  0.00    -0.572 OA
ATOM     71  O4S SGN d 503     -13.752  47.546 179.012  0.00  0.00    -0.572 OA
ATOM     72  O5S SGN d 503     -13.584  49.896 178.613  0.00  0.00    -0.572 OA
ENDBRANCH  68  69
ENDBRANCH  67  68
ENDBRANCH  62  67
BRANCH  64  73
ATOM     73  O4  IDS d 502      -9.926  47.998 173.058  0.00  0.00    -0.348 OA
BRANCH  73  74
ATOM     74  C4  IDS d 502      -8.585  47.720 173.368  0.00  0.00     0.195 C 
ATOM     75  C3  IDS d 502      -7.944  46.922 172.217  0.00  0.00     0.185 C 
ATOM     76  C2  IDS d 502      -7.767  47.798 170.974  0.00  0.00     0.231 C 
ATOM     77  C1  IDS d 502      -7.122  49.139 171.309  0.00  0.00     0.291 C 
ATOM     78  O5  IDS d 502      -7.786  49.774 172.372  0.00  0.00    -0.340 OA
ATOM     79  C5  IDS d 502      -7.829  49.031 173.574  0.00  0.00     0.257 C 
BRANCH  75  80
ATOM     80  O3  IDS d 502      -6.665  46.476 172.625  0.00  0.00    -0.390 OA
ATOM     81  H   IDS d 502      -6.027  46.628 171.910  0.00  0.00     0.210 HD
ENDBRANCH  75  80
BRANCH  76  82
ATOM     82  O2  IDS d 502      -9.047  48.049 170.456  0.00  0.00    -0.244 OA
BRANCH  82  83
ATOM     83  S   IDS d 502      -9.510  47.963 168.965  0.00  0.00     0.252 S 
ATOM     84  O3S IDS d 502     -10.948  47.914 169.029  0.00  0.00    -0.572 OA
ATOM     85  O2S IDS d 502      -8.910  46.761 168.434  0.00  0.00    -0.572 OA
ATOM     86  O1S IDS d 502      -9.039  49.147 168.303  0.00  0.00    -0.572 OA
ENDBRANCH  82  83
ENDBRANCH  76  82
BRANCH  77  87
ATOM     87  O1  IDS d 502      -5.765  48.908 171.582  0.00  0.00    -0.368 OA
ATOM     88  H   IDS d 502      -5.277  48.824 170.748  0.00  0.00     0.212 HD
ENDBRANCH  77  87
BRANCH  79  89
ATOM     89  C6  IDS d 502      -8.360  49.885 174.717  0.00  0.00     0.206 C 
ATOM     90  O61 IDS d 502      -8.817  50.984 174.518  0.00  0.00    -0.646 OA
ATOM     91  O62 IDS d 502      -8.341  49.479 175.863  0.00  0.00    -0.646 OA
ENDBRANCH  79  89
ENDBRANCH  73  74
ENDBRANCH  64  73
BRANCH  65  92
ATOM     92  N   SGN d 503     -11.699  46.410 171.486  0.00  0.00    -0.210 NA
ATOM     93  H   SGN d 503     -10.842  45.876 171.625  0.00  0.00     0.140 HD
BRANCH  92  94
ATOM     94  S1  SGN d 503     -12.759  45.438 170.724  0.00  0.00     0.156 S 
BRANCH  94  95
ATOM     95  O2S SGN d 503     -13.416  46.214 169.673  0.00  0.00    -0.296 OA
ATOM     96  H   SGN d 503     -13.061  45.952 168.809  0.00  0.00     0.231 HD
ENDBRANCH  94  95
BRANCH  94  97
ATOM     97  O1S SGN d 503     -13.696  44.989 171.736  0.00  0.00    -0.296 OA
ATOM     98  H   SGN d 503     -13.438  45.351 172.598  0.00  0.00     0.231 HD
ENDBRANCH  94  97
BRANCH  94  99
ATOM     99  O3S SGN d 503     -11.927  44.366 170.226  0.00  0.00    -0.296 OA
ATOM    100  H   SGN d 503     -11.867  44.426 169.260  0.00  0.00     0.231 HD
ENDBRANCH  94  99
ENDBRANCH  92  94
ENDBRANCH  65  92
BRANCH  66 101
ATOM    101  O3  SGN d 503     -14.107  47.970 171.963  0.00  0.00    -0.391 OA
ATOM    102  H   SGN d 503     -14.112  48.407 171.098  0.00  0.00     0.210 HD
ENDBRANCH  66 101
ENDBRANCH  60  61
ENDBRANCH   3  60
TORSDOF 40
ENDMDL
MODEL 24
REMARK VINA RESULT:      -3.3      1.643      2.953
REMARK WARNING: 32 MAX_TORS EXCEEDED!!!
REMARK  40 active torsions:
REMARK  status: ('A' for Active; 'I' for Inactive)
REMARK    1 I    between atoms: C6_1  and  C5_8 
REMARK    2 I    between atoms: C6_1  and  O6_57 
REMARK    3 I    between atoms: O4_2  and  C4_49 
REMARK    4 I    between atoms: O6_3  and  C6_7 
REMARK    5 I    between atoms: O6_3  and  S2_58 
REMARK    6 I    between atoms: S_4  and  O2_6 
REMARK    7 I    between atoms: O3_5  and  C3_81 
REMARK    8 I    between atoms: O2_6  and  C2_11 
REMARK    9 I    between atoms: C6_7  and  C5_54 
REMARK   10 I    between atoms: O4_9  and  C4_32 
REMARK   11 I    between atoms: O4_9  and  C1_39 
REMARK   12 I    between atoms: O3_12  and  C3_18 
REMARK   13 I    between atoms: N_13  and  C2_52 
REMARK   14 I    between atoms: N_13  and  S1_45 
REMARK   15 I    between atoms: O3_17  and  C3_83 
REMARK   16 I    between atoms: C4_20  and  O4_44 
REMARK   17 I    between atoms: N_21  and  C2_66 
REMARK   18 I    between atoms: N_21  and  S1_53 
REMARK   19 I    between atoms: O3_22  and  C3_65 
REMARK   20 I    between atoms: C4_23  and  O4_74 
REMARK   21 I    between atoms: C1_25  and  O1_72 
REMARK   22 I    between atoms: C2_28  and  O2_69 
REMARK   23 I    between atoms: C4_33  and  O4_61 
REMARK   24 I    between atoms: O2S_34  and  S1_45 
REMARK   25 I    between atoms: C6_37  and  C5_47 
REMARK   26 I    between atoms: O2_38  and  C2_77 
REMARK   27 I    between atoms: O2_38  and  S_50 
REMARK   28 I    between atoms: O3S_40  and  S1_53 
REMARK   29 I    between atoms: O1S_42  and  S1_45 
REMARK   30 I    between atoms: O1S_43  and  S1_53 
REMARK   31 I    between atoms: O4_44  and  C1_46 
REMARK   32 I    between atoms: S1_45  and  O3S_60 
REMARK   33 I    between atoms: C6_48  and  C5_84 
REMARK   34 I    between atoms: C6_51  and  C5_87 
REMARK   35 I    between atoms: S1_53  and  O2S_55 
REMARK   36 I    between atoms: C1_56  and  O4_74 
REMARK   37 I    between atoms: O6_57  and  S2_82 
REMARK   38 I    between atoms: O4_61  and  C1_70 
REMARK   39 I    between atoms: C3_63  and  O3_79 
REMARK   40 I    between atoms: O2_69  and  S_76 
ROOT
ATOM      1  C3  IDS d 504     -16.876  50.182 175.212  0.00  0.00     0.185 C 
ATOM      2  C4  IDS d 504     -16.226  49.648 173.945  0.00  0.00     0.195 C 
ATOM      3  C1  IDS d 504     -16.452  52.543 174.285  0.00  0.00     0.294 C 
ATOM      4  O5  IDS d 504     -15.842  51.892 173.165  0.00  0.00    -0.340 OA
ATOM      5  C2  IDS d 504     -16.428  51.663 175.519  0.00  0.00     0.231 C 
ATOM      6  C5  IDS d 504     -16.430  50.659 172.819  0.00  0.00     0.257 C 
ENDROOT
BRANCH   2   7
ATOM      7  O4  IDS d 504     -14.840  49.447 174.177  0.00  0.00    -0.348 OA
BRANCH   7   8
ATOM      8  C1  SGN d 505     -14.517  48.150 174.600  0.00  0.00     0.282 C 
ATOM      9  O5  SGN d 505     -14.474  47.277 173.508  0.00  0.00    -0.349 OA
ATOM     10  C5  SGN d 505     -13.468  47.575 172.589  0.00  0.00     0.181 C 
ATOM     11  C4  SGN d 505     -12.123  47.403 173.217  0.00  0.00     0.186 C 
ATOM     12  C3  SGN d 505     -12.030  48.450 174.365  0.00  0.00     0.173 C 
ATOM     13  C2  SGN d 505     -13.187  48.116 175.327  0.00  0.00     0.157 C 
BRANCH  10  14
ATOM     14  C6  SGN d 505     -13.684  46.668 171.422  0.00  0.00     0.227 C 
BRANCH  14  15
ATOM     15  O6  SGN d 505     -14.050  47.502 170.376  0.00  0.00    -0.254 OA
BRANCH  15  16
ATOM     16  S2  SGN d 505     -14.620  47.092 169.026  0.00  0.00     0.251 S 
ATOM     17  O5S SGN d 505     -15.949  46.618 169.324  0.00  0.00    -0.572 OA
ATOM     18  O4S SGN d 505     -13.716  46.074 168.540  0.00  0.00    -0.572 OA
ATOM     19  O6S SGN d 505     -14.627  48.284 168.190  0.00  0.00    -0.572 OA
ENDBRANCH  15  16
ENDBRANCH  14  15
ENDBRANCH  10  14
BRANCH  11  20
ATOM     20  O4  SGN d 505     -11.187  47.562 172.171  0.00  0.00    -0.348 OA
BRANCH  20  21
ATOM     21  C1  IDS d 506     -10.030  46.808 172.056  0.00  0.00     0.294 C 
ATOM     22  C2  IDS d 506      -9.274  47.246 170.794  0.00  0.00     0.231 C 
ATOM     23  C3  IDS d 506      -8.150  46.258 170.375  0.00  0.00     0.185 C 
ATOM     24  C4  IDS d 506      -8.515  44.774 170.594  0.00  0.00     0.189 C 
ATOM     25  C5  IDS d 506      -9.311  44.596 171.891  0.00  0.00     0.256 C 
ATOM     26  O5  IDS d 506     -10.399  45.460 171.905  0.00  0.00    -0.340 OA
BRANCH  22  27
ATOM     27  O2  IDS d 506     -10.166  47.339 169.700  0.00  0.00    -0.244 OA
BRANCH  27  28
ATOM     28  S   IDS d 506     -10.332  48.532 168.664  0.00  0.00     0.252 S 
ATOM     29  O1S IDS d 506     -10.448  47.900 167.385  0.00  0.00    -0.572 OA
ATOM     30  O2S IDS d 506     -11.531  49.248 168.996  0.00  0.00    -0.572 OA
ATOM     31  O3S IDS d 506      -9.133  49.331 168.798  0.00  0.00    -0.572 OA
ENDBRANCH  27  28
ENDBRANCH  22  27
BRANCH  23  32
ATOM     32  O3  IDS d 506      -6.981  46.554 171.135  0.00  0.00    -0.390 OA
ATOM     33  H   IDS d 506      -6.529  47.321 170.748  0.00  0.00     0.210 HD
ENDBRANCH  23  32
BRANCH  24  34
ATOM     34  O4  IDS d 506      -9.299  44.370 169.496  0.00  0.00    -0.390 OA
ATOM     35  H   IDS d 506      -8.986  44.817 168.693  0.00  0.00     0.210 HD
ENDBRANCH  24  34
BRANCH  25  36
ATOM     36  C6  IDS d 506      -9.781  43.190 172.212  0.00  0.00     0.206 C 
ATOM     37  O62 IDS d 506     -10.557  42.960 173.123  0.00  0.00    -0.646 OA
ATOM     38  O61 IDS d 506      -9.391  42.246 171.538  0.00  0.00    -0.646 OA
ENDBRANCH  25  36
ENDBRANCH  20  21
ENDBRANCH  11  20
BRANCH  12  39
ATOM     39  O3  SGN d 505     -10.803  48.311 175.069  0.00  0.00    -0.391 OA
ATOM     40  H   SGN d 505     -10.206  47.732 174.568  0.00  0.00     0.210 HD
ENDBRANCH  12  39
BRANCH  13  41
ATOM     41  N   SGN d 505     -13.269  48.964 176.539  0.00  0.00    -0.210 NA
ATOM     42  H   SGN d 505     -13.906  49.733 176.331  0.00  0.00     0.140 HD
BRANCH  41  43
ATOM     43  S1  SGN d 505     -13.800  48.242 177.955  0.00  0.00     0.156 S 
BRANCH  43  44
ATOM     44  O3S SGN d 505     -15.219  48.285 177.934  0.00  0.00    -0.296 OA
ATOM     45  H   SGN d 505     -15.515  49.205 178.018  0.00  0.00     0.231 HD
ENDBRANCH  43  44
BRANCH  43  46
ATOM     46  O1S SGN d 505     -13.276  46.893 177.981  0.00  0.00    -0.296 OA
ATOM     47  H   SGN d 505     -12.481  46.844 177.428  0.00  0.00     0.231 HD
ENDBRANCH  43  46
BRANCH  43  48
ATOM     48  O2S SGN d 505     -13.264  49.063 179.015  0.00  0.00    -0.296 OA
ATOM     49  H   SGN d 505     -12.510  48.611 179.425  0.00  0.00     0.231 HD
ENDBRANCH  43  48
ENDBRANCH  41  43
ENDBRANCH  13  41
ENDBRANCH   7   8
ENDBRANCH   2   7
BRANCH   1  50
ATOM     50  O3  IDS d 504     -18.283  50.142 175.009  0.00  0.00    -0.390 OA
ATOM     51  H   IDS d 504     -18.558  49.228 174.835  0.00  0.00     0.210 HD
ENDBRANCH   1  50
BRANCH   6  52
ATOM     52  C6  IDS d 504     -15.943  50.201 171.434  0.00  0.00     0.206 C 
ATOM     53  O62 IDS d 504     -16.550  49.337 170.799  0.00  0.00    -0.646 OA
ATOM     54  O61 IDS d 504     -14.929  50.673 170.936  0.00  0.00    -0.646 OA
ENDBRANCH   6  52
BRANCH   5  55
ATOM     55  O2  IDS d 504     -15.107  51.683 176.058  0.00  0.00    -0.244 OA
BRANCH  55  56
ATOM     56  S   IDS d 504     -14.702  52.091 177.486  0.00  0.00     0.252 S 
ATOM     57  O2S IDS d 504     -13.297  51.844 177.625  0.00  0.00    -0.572 OA
ATOM     58  O3S IDS d 504     -15.078  53.453 177.563  0.00  0.00    -0.572 OA
ATOM     59  O1S IDS d 504     -15.464  51.281 178.364  0.00  0.00    -0.572 OA
ENDBRANCH  55  56
ENDBRANCH   5  55
BRANCH   3  60
ATOM     60  O4  SGN d 503     -17.777  52.911 174.034  0.00  0.00    -0.348 OA
BRANCH  60  61
ATOM     61  C4  SGN d 503     -17.957  54.275 173.832  0.00  0.00     0.186 C 
ATOM     62  C5  SGN d 503     -19.464  54.584 173.864  0.00  0.00     0.181 C 
ATOM     63  O5  SGN d 503     -19.708  55.922 173.562  0.00  0.00    -0.349 OA
ATOM     64  C1  SGN d 503     -19.280  56.290 172.274  0.00  0.00     0.282 C 
ATOM     65  C2  SGN d 503     -17.763  56.078 172.157  0.00  0.00     0.157 C 
ATOM     66  C3  SGN d 503     -17.373  54.645 172.471  0.00  0.00     0.173 C 
BRANCH  62  67
ATOM     67  C6  SGN d 503     -20.114  54.374 175.205  0.00  0.00     0.227 C 
BRANCH  67  68
ATOM     68  O6  SGN d 503     -19.917  53.024 175.566  0.00  0.00    -0.254 OA
BRANCH  68  69
ATOM     69  S2  SGN d 503     -21.004  51.916 175.546  0.00  0.00     0.251 S 
ATOM     70  O6S SGN d 503     -20.687  51.115 176.664  0.00  0.00    -0.572 OA
ATOM     71  O4S SGN d 503     -22.274  52.532 175.730  0.00  0.00    -0.572 OA
ATOM     72  O5S SGN d 503     -20.905  51.243 174.254  0.00  0.00    -0.572 OA
ENDBRANCH  68  69
ENDBRANCH  67  68
ENDBRANCH  62  67
BRANCH  64  73
ATOM     73  O4  IDS d 502     -19.964  55.574 171.282  0.00  0.00    -0.348 OA
BRANCH  73  74
ATOM     74  C4  IDS d 502     -21.327  55.889 171.164  0.00  0.00     0.195 C 
ATOM     75  C3  IDS d 502     -21.499  57.099 170.226  0.00  0.00     0.185 C 
ATOM     76  C2  IDS d 502     -21.172  56.721 168.778  0.00  0.00     0.231 C 
ATOM     77  C1  IDS d 502     -21.871  55.432 168.356  0.00  0.00     0.291 C 
ATOM     78  O5  IDS d 502     -21.648  54.401 169.285  0.00  0.00    -0.340 OA
ATOM     79  C5  IDS d 502     -22.080  54.685 170.601  0.00  0.00     0.257 C 
BRANCH  75  80
ATOM     80  O3  IDS d 502     -22.845  57.530 170.274  0.00  0.00    -0.390 OA
ATOM     81  H   IDS d 502     -23.429  56.758 170.339  0.00  0.00     0.210 HD
ENDBRANCH  75  80
BRANCH  76  82
ATOM     82  O2  IDS d 502     -19.788  56.509 168.705  0.00  0.00    -0.244 OA
BRANCH  82  83
ATOM     83  S   IDS d 502     -18.736  57.325 167.884  0.00  0.00     0.252 S 
ATOM     84  O3S IDS d 502     -19.381  57.593 166.625  0.00  0.00    -0.572 OA
ATOM     85  O2S IDS d 502     -17.574  56.473 167.774  0.00  0.00    -0.572 OA
ATOM     86  O1S IDS d 502     -18.463  58.529 168.618  0.00  0.00    -0.572 OA
ENDBRANCH  82  83
ENDBRANCH  76  82
BRANCH  77  87
ATOM     87  O1  IDS d 502     -23.234  55.717 168.183  0.00  0.00    -0.368 OA
ATOM     88  H   IDS d 502     -23.331  56.517 167.642  0.00  0.00     0.212 HD
ENDBRANCH  77  87
BRANCH  79  89
ATOM     89  C6  IDS d 502     -22.006  53.439 171.472  0.00  0.00     0.206 C 
ATOM     90  O61 IDS d 502     -22.629  53.358 172.503  0.00  0.00    -0.646 OA
ATOM     91  O62 IDS d 502     -21.321  52.489 171.149  0.00  0.00    -0.646 OA
ENDBRANCH  79  89
ENDBRANCH  73  74
ENDBRANCH  64  73
BRANCH  65  92
ATOM     92  N   SGN d 503     -17.294  56.478 170.843  0.00  0.00    -0.210 NA
ATOM     93  H   SGN d 503     -17.955  57.164 170.478  0.00  0.00     0.140 HD
BRANCH  92  94
ATOM     94  S1  SGN d 503     -15.808  57.134 170.741  0.00  0.00     0.156 S 
BRANCH  94  95
ATOM     95  O2S SGN d 503     -15.397  57.544 172.083  0.00  0.00    -0.296 OA
ATOM     96  H   SGN d 503     -14.430  57.605 172.121  0.00  0.00     0.231 HD
ENDBRANCH  94  95
BRANCH  94  97
ATOM     97  O1S SGN d 503     -15.925  58.264 169.839  0.00  0.00    -0.296 OA
ATOM     98  H   SGN d 503     -15.829  57.957 168.923  0.00  0.00     0.231 HD
ENDBRANCH  94  97
BRANCH  94  99
ATOM     99  O3S SGN d 503     -15.010  56.064 170.187  0.00  0.00    -0.296 OA
ATOM    100  H   SGN d 503     -15.345  55.834 169.307  0.00  0.00     0.231 HD
ENDBRANCH  94  99
ENDBRANCH  92  94
ENDBRANCH  65  92
BRANCH  66 101
ATOM    101  O3  SGN d 503     -15.965  54.536 172.552  0.00  0.00    -0.391 OA
ATOM    102  H   SGN d 503     -15.646  55.027 173.325  0.00  0.00     0.210 HD
ENDBRANCH  66 101
ENDBRANCH  60  61
ENDBRANCH   3  60
TORSDOF 40
ENDMDL
MODEL 25
REMARK VINA RESULT:      -3.3      3.477     12.932
REMARK WARNING: 32 MAX_TORS EXCEEDED!!!
REMARK  40 active torsions:
REMARK  status: ('A' for Active; 'I' for Inactive)
REMARK    1 I    between atoms: C6_1  and  C5_8 
REMARK    2 I    between atoms: C6_1  and  O6_57 
REMARK    3 I    between atoms: O4_2  and  C4_49 
REMARK    4 I    between atoms: O6_3  and  C6_7 
REMARK    5 I    between atoms: O6_3  and  S2_58 
REMARK    6 I    between atoms: S_4  and  O2_6 
REMARK    7 I    between atoms: O3_5  and  C3_81 
REMARK    8 I    between atoms: O2_6  and  C2_11 
REMARK    9 I    between atoms: C6_7  and  C5_54 
REMARK   10 I    between atoms: O4_9  and  C4_32 
REMARK   11 I    between atoms: O4_9  and  C1_39 
REMARK   12 I    between atoms: O3_12  and  C3_18 
REMARK   13 I    between atoms: N_13  and  C2_52 
REMARK   14 I    between atoms: N_13  and  S1_45 
REMARK   15 I    between atoms: O3_17  and  C3_83 
REMARK   16 I    between atoms: C4_20  and  O4_44 
REMARK   17 I    between atoms: N_21  and  C2_66 
REMARK   18 I    between atoms: N_21  and  S1_53 
REMARK   19 I    between atoms: O3_22  and  C3_65 
REMARK   20 I    between atoms: C4_23  and  O4_74 
REMARK   21 I    between atoms: C1_25  and  O1_72 
REMARK   22 I    between atoms: C2_28  and  O2_69 
REMARK   23 I    between atoms: C4_33  and  O4_61 
REMARK   24 I    between atoms: O2S_34  and  S1_45 
REMARK   25 I    between atoms: C6_37  and  C5_47 
REMARK   26 I    between atoms: O2_38  and  C2_77 
REMARK   27 I    between atoms: O2_38  and  S_50 
REMARK   28 I    between atoms: O3S_40  and  S1_53 
REMARK   29 I    between atoms: O1S_42  and  S1_45 
REMARK   30 I    between atoms: O1S_43  and  S1_53 
REMARK   31 I    between atoms: O4_44  and  C1_46 
REMARK   32 I    between atoms: S1_45  and  O3S_60 
REMARK   33 I    between atoms: C6_48  and  C5_84 
REMARK   34 I    between atoms: C6_51  and  C5_87 
REMARK   35 I    between atoms: S1_53  and  O2S_55 
REMARK   36 I    between atoms: C1_56  and  O4_74 
REMARK   37 I    between atoms: O6_57  and  S2_82 
REMARK   38 I    between atoms: O4_61  and  C1_70 
REMARK   39 I    between atoms: C3_63  and  O3_79 
REMARK   40 I    between atoms: O2_69  and  S_76 
ROOT
ATOM      1  C3  IDS d 504     -14.124  50.122 177.131  0.00  0.00     0.185 C 
ATOM      2  C4  IDS d 504     -14.596  51.355 176.376  0.00  0.00     0.195 C 
ATOM      3  C1  IDS d 504     -13.110  49.306 174.914  0.00  0.00     0.294 C 
ATOM      4  O5  IDS d 504     -13.642  50.502 174.337  0.00  0.00    -0.340 OA
ATOM      5  C2  IDS d 504     -13.871  48.904 176.161  0.00  0.00     0.231 C 
ATOM      6  C5  IDS d 504     -13.649  51.612 175.206  0.00  0.00     0.257 C 
ENDROOT
BRANCH   2   7
ATOM      7  O4  IDS d 504     -15.915  51.137 175.898  0.00  0.00    -0.348 OA
BRANCH   7   8
ATOM      8  C1  SGN d 505     -16.915  51.434 176.835  0.00  0.00     0.282 C 
ATOM      9  O5  SGN d 505     -17.010  52.817 177.024  0.00  0.00    -0.349 OA
ATOM     10  C5  SGN d 505     -17.417  53.513 175.887  0.00  0.00     0.181 C 
ATOM     11  C4  SGN d 505     -18.810  53.124 175.509  0.00  0.00     0.186 C 
ATOM     12  C3  SGN d 505     -18.765  51.613 175.139  0.00  0.00     0.173 C 
ATOM     13  C2  SGN d 505     -18.263  50.890 176.404  0.00  0.00     0.157 C 
BRANCH  10  14
ATOM     14  C6  SGN d 505     -17.290  54.965 176.216  0.00  0.00     0.227 C 
BRANCH  14  15
ATOM     15  O6  SGN d 505     -16.504  55.499 175.205  0.00  0.00    -0.254 OA
BRANCH  15  16
ATOM     16  S2  SGN d 505     -15.560  56.689 175.303  0.00  0.00     0.251 S 
ATOM     17  O5S SGN d 505     -16.420  57.811 175.588  0.00  0.00    -0.572 OA
ATOM     18  O4S SGN d 505     -14.907  56.746 174.015  0.00  0.00    -0.572 OA
ATOM     19  O6S SGN d 505     -14.634  56.406 176.391  0.00  0.00    -0.572 OA
ENDBRANCH  15  16
ENDBRANCH  14  15
ENDBRANCH  10  14
BRANCH  11  20
ATOM     20  O4  SGN d 505     -19.183  53.997 174.464  0.00  0.00    -0.348 OA
BRANCH  20  21
ATOM     21  C1  IDS d 506     -20.443  54.565 174.352  0.00  0.00     0.294 C 
ATOM     22  C2  IDS d 506     -20.562  55.244 172.980  0.00  0.00     0.231 C 
ATOM     23  C3  IDS d 506     -21.786  56.195 172.868  0.00  0.00     0.185 C 
ATOM     24  C4  IDS d 506     -22.077  56.986 174.161  0.00  0.00     0.189 C 
ATOM     25  C5  IDS d 506     -21.837  56.114 175.397  0.00  0.00     0.256 C 
ATOM     26  O5  IDS d 506     -20.567  55.551 175.345  0.00  0.00    -0.340 OA
BRANCH  22  27
ATOM     27  O2  IDS d 506     -19.412  56.024 172.721  0.00  0.00    -0.244 OA
BRANCH  27  28
ATOM     28  S   IDS d 506     -18.448  55.969 171.459  0.00  0.00     0.252 S 
ATOM     29  O1S IDS d 506     -17.329  55.184 171.880  0.00  0.00    -0.572 OA
ATOM     30  O2S IDS d 506     -19.154  55.327 170.386  0.00  0.00    -0.572 OA
ATOM     31  O3S IDS d 506     -18.104  57.345 171.174  0.00  0.00    -0.572 OA
ENDBRANCH  27  28
ENDBRANCH  22  27
BRANCH  23  32
ATOM     32  O3  IDS d 506     -22.936  55.417 172.544  0.00  0.00    -0.390 OA
ATOM     33  H   IDS d 506     -23.240  55.646 171.652  0.00  0.00     0.210 HD
ENDBRANCH  23  32
BRANCH  24  34
ATOM     34  O4  IDS d 506     -21.203  58.090 174.181  0.00  0.00    -0.390 OA
ATOM     35  H   IDS d 506     -21.252  58.558 173.332  0.00  0.00     0.210 HD
ENDBRANCH  24  34
BRANCH  25  36
ATOM     36  C6  IDS d 506     -22.039  56.778 176.747  0.00  0.00     0.206 C 
ATOM     37  O62 IDS d 506     -22.843  56.357 177.560  0.00  0.00    -0.646 OA
ATOM     38  O61 IDS d 506     -21.373  57.757 177.052  0.00  0.00    -0.646 OA
ENDBRANCH  25  36
ENDBRANCH  20  21
ENDBRANCH  11  20
BRANCH  12  39
ATOM     39  O3  SGN d 505     -20.068  51.136 174.834  0.00  0.00    -0.391 OA
ATOM     40  H   SGN d 505     -20.508  51.757 174.231  0.00  0.00     0.210 HD
ENDBRANCH  12  39
BRANCH  13  41
ATOM     41  N   SGN d 505     -18.184  49.414 176.301  0.00  0.00    -0.210 NA
ATOM     42  H   SGN d 505     -17.446  49.102 176.931  0.00  0.00     0.140 HD
BRANCH  41  43
ATOM     43  S1  SGN d 505     -19.564  48.538 176.672  0.00  0.00     0.156 S 
BRANCH  43  44
ATOM     44  O3S SGN d 505     -19.144  47.394 177.400  0.00  0.00    -0.296 OA
ATOM     45  H   SGN d 505     -19.590  47.377 178.261  0.00  0.00     0.231 HD
ENDBRANCH  43  44
BRANCH  43  46
ATOM     46  O1S SGN d 505     -20.440  49.403 177.434  0.00  0.00    -0.296 OA
ATOM     47  H   SGN d 505     -20.109  49.478 178.342  0.00  0.00     0.231 HD
ENDBRANCH  43  46
BRANCH  43  48
ATOM     48  O2S SGN d 505     -20.127  48.171 175.394  0.00  0.00    -0.296 OA
ATOM     49  H   SGN d 505     -20.272  48.970 174.863  0.00  0.00     0.231 HD
ENDBRANCH  43  48
ENDBRANCH  41  43
ENDBRANCH  13  41
ENDBRANCH   7   8
ENDBRANCH   2   7
BRANCH   1  50
ATOM     50  O3  IDS d 504     -12.911  50.472 177.785  0.00  0.00    -0.390 OA
ATOM     51  H   IDS d 504     -12.422  51.109 177.240  0.00  0.00     0.210 HD
ENDBRANCH   1  50
BRANCH   6  52
ATOM     52  C6  IDS d 504     -13.917  52.907 174.421  0.00  0.00     0.206 C 
ATOM     53  O62 IDS d 504     -13.253  53.926 174.626  0.00  0.00    -0.646 OA
ATOM     54  O61 IDS d 504     -14.810  52.964 173.585  0.00  0.00    -0.646 OA
ENDBRANCH   6  52
BRANCH   5  55
ATOM     55  O2  IDS d 504     -15.109  48.319 175.762  0.00  0.00    -0.244 OA
BRANCH  55  56
ATOM     56  S   IDS d 504     -15.748  47.039 176.331  0.00  0.00     0.252 S 
ATOM     57  O2S IDS d 504     -16.202  47.335 177.658  0.00  0.00    -0.572 OA
ATOM     58  O3S IDS d 504     -16.774  46.738 175.404  0.00  0.00    -0.572 OA
ATOM     59  O1S IDS d 504     -14.731  46.052 176.334  0.00  0.00    -0.572 OA
ENDBRANCH  55  56
ENDBRANCH   5  55
BRANCH   3  60
ATOM     60  O4  SGN d 503     -11.756  49.427 175.245  0.00  0.00    -0.348 OA
BRANCH  60  61
ATOM     61  C4  SGN d 503     -10.935  49.740 174.167  0.00  0.00     0.186 C 
ATOM     62  C5  SGN d 503     -10.369  48.435 173.582  0.00  0.00     0.181 C 
ATOM     63  O5  SGN d 503      -9.455  48.698 172.564  0.00  0.00    -0.349 OA
ATOM     64  C1  SGN d 503      -8.334  49.429 172.996  0.00  0.00     0.282 C 
ATOM     65  C2  SGN d 503      -8.789  50.789 173.545  0.00  0.00     0.157 C 
ATOM     66  C3  SGN d 503      -9.799  50.630 174.667  0.00  0.00     0.173 C 
BRANCH  62  67
ATOM     67  C6  SGN d 503     -11.398  47.540 172.946  0.00  0.00     0.227 C 
BRANCH  67  68
ATOM     68  O6  SGN d 503     -11.137  47.511 171.560  0.00  0.00    -0.254 OA
BRANCH  68  69
ATOM     69  S2  SGN d 503     -12.137  47.912 170.444  0.00  0.00     0.251 S 
ATOM     70  O6S SGN d 503     -11.406  48.818 169.647  0.00  0.00    -0.572 OA
ATOM     71  O4S SGN d 503     -12.458  46.747 169.691  0.00  0.00    -0.572 OA
ATOM     72  O5S SGN d 503     -13.311  48.475 171.104  0.00  0.00    -0.572 OA
ENDBRANCH  68  69
ENDBRANCH  67  68
ENDBRANCH  62  67
BRANCH  64  73
ATOM     73  O4  IDS d 502      -7.599  48.722 173.957  0.00  0.00    -0.348 OA
BRANCH  73  74
ATOM     74  C4  IDS d 502      -6.552  47.941 173.439  0.00  0.00     0.195 C 
ATOM     75  C3  IDS d 502      -5.239  48.747 173.478  0.00  0.00     0.185 C 
ATOM     76  C2  IDS d 502      -4.757  48.941 174.918  0.00  0.00     0.231 C 
ATOM     77  C1  IDS d 502      -4.773  47.634 175.704  0.00  0.00     0.291 C 
ATOM     78  O5  IDS d 502      -6.016  46.986 175.595  0.00  0.00    -0.340 OA
ATOM     79  C5  IDS d 502      -6.405  46.671 174.273  0.00  0.00     0.257 C 
BRANCH  75  80
ATOM     80  O3  IDS d 502      -4.241  48.032 172.774  0.00  0.00    -0.390 OA
ATOM     81  H   IDS d 502      -4.457  47.087 172.779  0.00  0.00     0.210 HD
ENDBRANCH  75  80
BRANCH  76  82
ATOM     82  O2  IDS d 502      -5.646  49.832 175.538  0.00  0.00    -0.244 OA
BRANCH  82  83
ATOM     83  S   IDS d 502      -5.303  51.168 176.275  0.00  0.00     0.252 S 
ATOM     84  O3S IDS d 502      -4.736  52.014 175.258  0.00  0.00    -0.572 OA
ATOM     85  O2S IDS d 502      -4.374  50.814 177.323  0.00  0.00    -0.572 OA
ATOM     86  O1S IDS d 502      -6.535  51.697 176.793  0.00  0.00    -0.572 OA
ENDBRANCH  82  83
ENDBRANCH  76  82
BRANCH  77  87
ATOM     87  O1  IDS d 502      -3.710  46.842 175.246  0.00  0.00    -0.368 OA
ATOM     88  H   IDS d 502      -4.020  46.268 174.527  0.00  0.00     0.212 HD
ENDBRANCH  77  87
BRANCH  79  89
ATOM     89  C6  IDS d 502      -7.639  45.779 174.274  0.00  0.00     0.206 C 
ATOM     90  O61 IDS d 502      -8.047  45.275 175.292  0.00  0.00    -0.646 OA
ATOM     91  O62 IDS d 502      -8.249  45.554 173.247  0.00  0.00    -0.646 OA
ENDBRANCH  79  89
ENDBRANCH  73  74
ENDBRANCH  64  73
BRANCH  65  92
ATOM     92  N   SGN d 503      -7.644  51.574 173.971  0.00  0.00    -0.210 NA
ATOM     93  H   SGN d 503      -6.821  51.190 173.509  0.00  0.00     0.140 HD
BRANCH  92  94
ATOM     94  S1  SGN d 503      -7.672  53.173 173.667  0.00  0.00     0.156 S 
BRANCH  94  95
ATOM     95  O2S SGN d 503      -6.373  53.554 173.114  0.00  0.00    -0.296 OA
ATOM     96  H   SGN d 503      -6.197  54.487 173.318  0.00  0.00     0.231 HD
ENDBRANCH  94  95
BRANCH  94  97
ATOM     97  O1S SGN d 503      -7.936  53.822 174.937  0.00  0.00    -0.296 OA
ATOM     98  H   SGN d 503      -8.855  54.131 174.956  0.00  0.00     0.231 HD
ENDBRANCH  94  97
BRANCH  94  99
ATOM     99  O3S SGN d 503      -8.768  53.313 172.735  0.00  0.00    -0.296 OA
ATOM    100  H   SGN d 503      -9.608  53.276 173.216  0.00  0.00     0.231 HD
ENDBRANCH  94  99
ENDBRANCH  92  94
ENDBRANCH  65  92
BRANCH  66 101
ATOM    101  O3  SGN d 503     -10.344  51.890 175.007  0.00  0.00    -0.391 OA
ATOM    102  H   SGN d 503     -10.036  52.148 175.890  0.00  0.00     0.210 HD
ENDBRANCH  66 101
ENDBRANCH  60  61
ENDBRANCH   3  60
TORSDOF 40
ENDMDL
MODEL 26
REMARK VINA RESULT:      -3.3      3.128      5.252
REMARK WARNING: 32 MAX_TORS EXCEEDED!!!
REMARK  40 active torsions:
REMARK  status: ('A' for Active; 'I' for Inactive)
REMARK    1 I    between atoms: C6_1  and  C5_8 
REMARK    2 I    between atoms: C6_1  and  O6_57 
REMARK    3 I    between atoms: O4_2  and  C4_49 
REMARK    4 I    between atoms: O6_3  and  C6_7 
REMARK    5 I    between atoms: O6_3  and  S2_58 
REMARK    6 I    between atoms: S_4  and  O2_6 
REMARK    7 I    between atoms: O3_5  and  C3_81 
REMARK    8 I    between atoms: O2_6  and  C2_11 
REMARK    9 I    between atoms: C6_7  and  C5_54 
REMARK   10 I    between atoms: O4_9  and  C4_32 
REMARK   11 I    between atoms: O4_9  and  C1_39 
REMARK   12 I    between atoms: O3_12  and  C3_18 
REMARK   13 I    between atoms: N_13  and  C2_52 
REMARK   14 I    between atoms: N_13  and  S1_45 
REMARK   15 I    between atoms: O3_17  and  C3_83 
REMARK   16 I    between atoms: C4_20  and  O4_44 
REMARK   17 I    between atoms: N_21  and  C2_66 
REMARK   18 I    between atoms: N_21  and  S1_53 
REMARK   19 I    between atoms: O3_22  and  C3_65 
REMARK   20 I    between atoms: C4_23  and  O4_74 
REMARK   21 I    between atoms: C1_25  and  O1_72 
REMARK   22 I    between atoms: C2_28  and  O2_69 
REMARK   23 I    between atoms: C4_33  and  O4_61 
REMARK   24 I    between atoms: O2S_34  and  S1_45 
REMARK   25 I    between atoms: C6_37  and  C5_47 
REMARK   26 I    between atoms: O2_38  and  C2_77 
REMARK   27 I    between atoms: O2_38  and  S_50 
REMARK   28 I    between atoms: O3S_40  and  S1_53 
REMARK   29 I    between atoms: O1S_42  and  S1_45 
REMARK   30 I    between atoms: O1S_43  and  S1_53 
REMARK   31 I    between atoms: O4_44  and  C1_46 
REMARK   32 I    between atoms: S1_45  and  O3S_60 
REMARK   33 I    between atoms: C6_48  and  C5_84 
REMARK   34 I    between atoms: C6_51  and  C5_87 
REMARK   35 I    between atoms: S1_53  and  O2S_55 
REMARK   36 I    between atoms: C1_56  and  O4_74 
REMARK   37 I    between atoms: O6_57  and  S2_82 
REMARK   38 I    between atoms: O4_61  and  C1_70 
REMARK   39 I    between atoms: C3_63  and  O3_79 
REMARK   40 I    between atoms: O2_69  and  S_76 
ROOT
ATOM      1  C3  IDS d 504     -18.895  50.380 173.033  0.00  0.00     0.185 C 
ATOM      2  C4  IDS d 504     -17.595  49.716 172.605  0.00  0.00     0.195 C 
ATOM      3  C1  IDS d 504     -17.472  52.368 173.829  0.00  0.00     0.294 C 
ATOM      4  O5  IDS d 504     -16.337  51.607 173.404  0.00  0.00    -0.340 OA
ATOM      5  C2  IDS d 504     -18.655  51.474 174.143  0.00  0.00     0.231 C 
ATOM      6  C5  IDS d 504     -16.571  50.800 172.272  0.00  0.00     0.257 C 
ENDROOT
BRANCH   2   7
ATOM      7  O4  IDS d 504     -17.115  48.899 173.663  0.00  0.00    -0.348 OA
BRANCH   7   8
ATOM      8  C1  SGN d 505     -17.638  47.598 173.656  0.00  0.00     0.282 C 
ATOM      9  O5  SGN d 505     -17.196  46.900 172.526  0.00  0.00    -0.349 OA
ATOM     10  C5  SGN d 505     -15.817  46.694 172.498  0.00  0.00     0.181 C 
ATOM     11  C4  SGN d 505     -15.400  45.811 173.629  0.00  0.00     0.186 C 
ATOM     12  C3  SGN d 505     -15.728  46.583 174.940  0.00  0.00     0.173 C 
ATOM     13  C2  SGN d 505     -17.248  46.834 174.906  0.00  0.00     0.157 C 
BRANCH  10  14
ATOM     14  C6  SGN d 505     -15.509  46.105 171.159  0.00  0.00     0.227 C 
BRANCH  14  15
ATOM     15  O6  SGN d 505     -14.876  47.118 170.455  0.00  0.00    -0.254 OA
BRANCH  15  16
ATOM     16  S2  SGN d 505     -13.972  46.969 169.240  0.00  0.00     0.251 S 
ATOM     17  O5S SGN d 505     -13.631  45.569 169.212  0.00  0.00    -0.572 OA
ATOM     18  O4S SGN d 505     -12.857  47.852 169.501  0.00  0.00    -0.572 OA
ATOM     19  O6S SGN d 505     -14.751  47.377 168.079  0.00  0.00    -0.572 OA
ENDBRANCH  15  16
ENDBRANCH  14  15
ENDBRANCH  10  14
BRANCH  11  20
ATOM     20  O4  SGN d 505     -14.033  45.530 173.414  0.00  0.00    -0.348 OA
BRANCH  20  21
ATOM     21  C1  IDS d 506     -13.543  44.259 173.153  0.00  0.00     0.294 C 
ATOM     22  C2  IDS d 506     -12.037  44.355 172.870  0.00  0.00     0.231 C 
ATOM     23  C3  IDS d 506     -11.446  43.064 172.239  0.00  0.00     0.185 C 
ATOM     24  C4  IDS d 506     -12.390  42.379 171.228  0.00  0.00     0.189 C 
ATOM     25  C5  IDS d 506     -13.844  42.458 171.704  0.00  0.00     0.256 C 
ATOM     26  O5  IDS d 506     -14.180  43.774 171.998  0.00  0.00    -0.340 OA
BRANCH  22  27
ATOM     27  O2  IDS d 506     -11.778  45.409 171.964  0.00  0.00    -0.244 OA
BRANCH  27  28
ATOM     28  S   IDS d 506     -10.545  46.412 171.947  0.00  0.00     0.252 S 
ATOM     29  O1S IDS d 506     -10.013  46.323 170.623  0.00  0.00    -0.572 OA
ATOM     30  O2S IDS d 506     -11.040  47.732 172.217  0.00  0.00    -0.572 OA
ATOM     31  O3S IDS d 506      -9.635  45.924 172.961  0.00  0.00    -0.572 OA
ENDBRANCH  27  28
ENDBRANCH  22  27
BRANCH  23  32
ATOM     32  O3  IDS d 506     -11.155  42.141 173.285  0.00  0.00    -0.390 OA
ATOM     33  H   IDS d 506     -10.213  41.911 173.261  0.00  0.00     0.210 HD
ENDBRANCH  23  32
BRANCH  24  34
ATOM     34  O4  IDS d 506     -12.254  43.058 170.002  0.00  0.00    -0.390 OA
ATOM     35  H   IDS d 506     -11.448  42.757 169.553  0.00  0.00     0.210 HD
ENDBRANCH  24  34
BRANCH  25  36
ATOM     36  C6  IDS d 506     -14.894  41.864 170.782  0.00  0.00     0.206 C 
ATOM     37  O62 IDS d 506     -14.615  41.439 169.675  0.00  0.00    -0.646 OA
ATOM     38  O61 IDS d 506     -16.058  41.787 171.150  0.00  0.00    -0.646 OA
ENDBRANCH  25  36
ENDBRANCH  20  21
ENDBRANCH  11  20
BRANCH  12  39
ATOM     39  O3  SGN d 505     -15.428  45.784 176.078  0.00  0.00    -0.391 OA
ATOM     40  H   SGN d 505     -14.530  45.426 175.994  0.00  0.00     0.210 HD
ENDBRANCH  12  39
BRANCH  13  41
ATOM     41  N   SGN d 505     -17.803  47.523 176.094  0.00  0.00    -0.210 NA
ATOM     42  H   SGN d 505     -17.658  48.524 175.963  0.00  0.00     0.140 HD
BRANCH  41  43
ATOM     43  S1  SGN d 505     -19.428  47.293 176.433  0.00  0.00     0.156 S 
BRANCH  43  44
ATOM     44  O3S SGN d 505     -19.755  45.974 176.019  0.00  0.00    -0.296 OA
ATOM     45  H   SGN d 505     -20.369  46.014 175.269  0.00  0.00     0.231 HD
ENDBRANCH  43  44
BRANCH  43  46
ATOM     46  O1S SGN d 505     -19.613  47.501 177.854  0.00  0.00    -0.296 OA
ATOM     47  H   SGN d 505     -20.465  47.938 178.008  0.00  0.00     0.231 HD
ENDBRANCH  43  46
BRANCH  43  48
ATOM     48  O2S SGN d 505     -20.118  48.280 175.637  0.00  0.00    -0.296 OA
ATOM     49  H   SGN d 505     -19.471  48.812 175.147  0.00  0.00     0.231 HD
ENDBRANCH  43  48
ENDBRANCH  41  43
ENDBRANCH  13  41
ENDBRANCH   7   8
ENDBRANCH   2   7
BRANCH   1  50
ATOM     50  O3  IDS d 504     -19.453  50.990 171.876  0.00  0.00    -0.390 OA
ATOM     51  H   IDS d 504     -19.943  51.786 172.135  0.00  0.00     0.210 HD
ENDBRANCH   1  50
BRANCH   6  52
ATOM     52  C6  IDS d 504     -15.242  50.286 171.694  0.00  0.00     0.206 C 
ATOM     53  O62 IDS d 504     -15.034  50.285 170.479  0.00  0.00    -0.646 OA
ATOM     54  O61 IDS d 504     -14.364  49.849 172.427  0.00  0.00    -0.646 OA
ENDBRANCH   6  52
BRANCH   5  55
ATOM     55  O2  IDS d 504     -18.427  50.858 175.409  0.00  0.00    -0.244 OA
BRANCH  55  56
ATOM     56  S   IDS d 504     -18.683  51.478 176.794  0.00  0.00     0.252 S 
ATOM     57  O2S IDS d 504     -19.153  52.817 176.589  0.00  0.00    -0.572 OA
ATOM     58  O3S IDS d 504     -19.625  50.602 177.384  0.00  0.00    -0.572 OA
ATOM     59  O1S IDS d 504     -17.442  51.459 177.478  0.00  0.00    -0.572 OA
ENDBRANCH  55  56
ENDBRANCH   5  55
BRANCH   3  60
ATOM     60  O4  SGN d 503     -17.874  53.310 172.876  0.00  0.00    -0.348 OA
BRANCH  60  61
ATOM     61  C4  SGN d 503     -17.358  54.584 173.086  0.00  0.00     0.186 C 
ATOM     62  C5  SGN d 503     -18.410  55.619 172.652  0.00  0.00     0.181 C 
ATOM     63  O5  SGN d 503     -17.904  56.915 172.742  0.00  0.00    -0.349 OA
ATOM     64  C1  SGN d 503     -16.794  57.139 171.908  0.00  0.00     0.282 C 
ATOM     65  C2  SGN d 503     -15.655  56.190 172.304  0.00  0.00     0.157 C 
ATOM     66  C3  SGN d 503     -16.091  54.737 172.247  0.00  0.00     0.173 C 
BRANCH  62  67
ATOM     67  C6  SGN d 503     -19.652  55.638 173.501  0.00  0.00     0.227 C 
BRANCH  67  68
ATOM     68  O6  SGN d 503     -19.244  55.655 174.851  0.00  0.00    -0.254 OA
BRANCH  68  69
ATOM     69  S2  SGN d 503     -19.629  56.734 175.897  0.00  0.00     0.251 S 
ATOM     70  O6S SGN d 503     -18.387  57.152 176.421  0.00  0.00    -0.572 OA
ATOM     71  O4S SGN d 503     -20.260  57.813 175.215  0.00  0.00    -0.572 OA
ATOM     72  O5S SGN d 503     -20.524  56.098 176.859  0.00  0.00    -0.572 OA
ENDBRANCH  68  69
ENDBRANCH  67  68
ENDBRANCH  62  67
BRANCH  64  73
ATOM     73  O4  IDS d 502     -17.129  56.985 170.556  0.00  0.00    -0.348 OA
BRANCH  73  74
ATOM     74  C4  IDS d 502     -17.837  58.062 169.998  0.00  0.00     0.195 C 
ATOM     75  C3  IDS d 502     -16.846  59.141 169.524  0.00  0.00     0.185 C 
ATOM     76  C2  IDS d 502     -16.057  58.662 168.302  0.00  0.00     0.231 C 
ATOM     77  C1  IDS d 502     -16.968  58.064 167.235  0.00  0.00     0.291 C 
ATOM     78  O5  IDS d 502     -17.828  57.096 167.781  0.00  0.00    -0.340 OA
ATOM     79  C5  IDS d 502     -18.668  57.566 168.817  0.00  0.00     0.257 C 
BRANCH  75  80
ATOM     80  O3  IDS d 502     -17.570  60.298 169.152  0.00  0.00    -0.390 OA
ATOM     81  H   IDS d 502     -17.782  60.256 168.207  0.00  0.00     0.210 HD
ENDBRANCH  75  80
BRANCH  76  82
ATOM     82  O2  IDS d 502     -15.182  57.657 168.739  0.00  0.00    -0.244 OA
BRANCH  82  83
ATOM     83  S   IDS d 502     -14.073  56.926 167.912  0.00  0.00     0.252 S 
ATOM     84  O3S IDS d 502     -14.572  55.586 167.734  0.00  0.00    -0.572 OA
ATOM     85  O2S IDS d 502     -12.872  56.999 168.711  0.00  0.00    -0.572 OA
ATOM     86  O1S IDS d 502     -13.943  57.624 166.664  0.00  0.00    -0.572 OA
ENDBRANCH  82  83
ENDBRANCH  76  82
BRANCH  77  87
ATOM     87  O1  IDS d 502     -17.662  59.118 166.621  0.00  0.00    -0.368 OA
ATOM     88  H   IDS d 502     -18.035  59.700 167.302  0.00  0.00     0.212 HD
ENDBRANCH  77  87
BRANCH  79  89
ATOM     89  C6  IDS d 502     -19.710  56.517 169.182  0.00  0.00     0.206 C 
ATOM     90  O61 IDS d 502     -19.721  55.433 168.652  0.00  0.00    -0.646 OA
ATOM     91  O62 IDS d 502     -20.557  56.744 170.024  0.00  0.00    -0.646 OA
ENDBRANCH  79  89
ENDBRANCH  73  74
ENDBRANCH  64  73
BRANCH  65  92
ATOM     92  N   SGN d 503     -14.486  56.424 171.473  0.00  0.00    -0.210 NA
ATOM     93  H   SGN d 503     -14.819  56.720 170.556  0.00  0.00     0.140 HD
BRANCH  92  94
ATOM     94  S1  SGN d 503     -13.410  57.533 171.983  0.00  0.00     0.156 S 
BRANCH  94  95
ATOM     95  O2S SGN d 503     -12.066  57.004 171.755  0.00  0.00    -0.296 OA
ATOM     96  H   SGN d 503     -12.130  56.097 171.416  0.00  0.00     0.231 HD
ENDBRANCH  94  95
BRANCH  94  97
ATOM     97  O1S SGN d 503     -13.681  57.742 173.392  0.00  0.00    -0.296 OA
ATOM     98  H   SGN d 503     -14.300  58.482 173.496  0.00  0.00     0.231 HD
ENDBRANCH  94  97
BRANCH  94  99
ATOM     99  O3S SGN d 503     -13.725  58.693 171.181  0.00  0.00    -0.296 OA
ATOM    100  H   SGN d 503     -14.678  58.712 171.000  0.00  0.00     0.231 HD
ENDBRANCH  94  99
ENDBRANCH  92  94
ENDBRANCH  65  92
BRANCH  66 101
ATOM    101  O3  SGN d 503     -15.089  53.911 172.808  0.00  0.00    -0.391 OA
ATOM    102  H   SGN d 503     -14.514  53.577 172.103  0.00  0.00     0.210 HD
ENDBRANCH  66 101
ENDBRANCH  60  61
ENDBRANCH   3  60
TORSDOF 40
ENDMDL
MODEL 27
REMARK VINA RESULT:      -3.2      2.649     12.452
REMARK WARNING: 32 MAX_TORS EXCEEDED!!!
REMARK  40 active torsions:
REMARK  status: ('A' for Active; 'I' for Inactive)
REMARK    1 I    between atoms: C6_1  and  C5_8 
REMARK    2 I    between atoms: C6_1  and  O6_57 
REMARK    3 I    between atoms: O4_2  and  C4_49 
REMARK    4 I    between atoms: O6_3  and  C6_7 
REMARK    5 I    between atoms: O6_3  and  S2_58 
REMARK    6 I    between atoms: S_4  and  O2_6 
REMARK    7 I    between atoms: O3_5  and  C3_81 
REMARK    8 I    between atoms: O2_6  and  C2_11 
REMARK    9 I    between atoms: C6_7  and  C5_54 
REMARK   10 I    between atoms: O4_9  and  C4_32 
REMARK   11 I    between atoms: O4_9  and  C1_39 
REMARK   12 I    between atoms: O3_12  and  C3_18 
REMARK   13 I    between atoms: N_13  and  C2_52 
REMARK   14 I    between atoms: N_13  and  S1_45 
REMARK   15 I    between atoms: O3_17  and  C3_83 
REMARK   16 I    between atoms: C4_20  and  O4_44 
REMARK   17 I    between atoms: N_21  and  C2_66 
REMARK   18 I    between atoms: N_21  and  S1_53 
REMARK   19 I    between atoms: O3_22  and  C3_65 
REMARK   20 I    between atoms: C4_23  and  O4_74 
REMARK   21 I    between atoms: C1_25  and  O1_72 
REMARK   22 I    between atoms: C2_28  and  O2_69 
REMARK   23 I    between atoms: C4_33  and  O4_61 
REMARK   24 I    between atoms: O2S_34  and  S1_45 
REMARK   25 I    between atoms: C6_37  and  C5_47 
REMARK   26 I    between atoms: O2_38  and  C2_77 
REMARK   27 I    between atoms: O2_38  and  S_50 
REMARK   28 I    between atoms: O3S_40  and  S1_53 
REMARK   29 I    between atoms: O1S_42  and  S1_45 
REMARK   30 I    between atoms: O1S_43  and  S1_53 
REMARK   31 I    between atoms: O4_44  and  C1_46 
REMARK   32 I    between atoms: S1_45  and  O3S_60 
REMARK   33 I    between atoms: C6_48  and  C5_84 
REMARK   34 I    between atoms: C6_51  and  C5_87 
REMARK   35 I    between atoms: S1_53  and  O2S_55 
REMARK   36 I    between atoms: C1_56  and  O4_74 
REMARK   37 I    between atoms: O6_57  and  S2_82 
REMARK   38 I    between atoms: O4_61  and  C1_70 
REMARK   39 I    between atoms: C3_63  and  O3_79 
REMARK   40 I    between atoms: O2_69  and  S_76 
ROOT
ATOM      1  C3  IDS d 504     -14.678  50.258 176.533  0.00  0.00     0.185 C 
ATOM      2  C4  IDS d 504     -15.353  51.046 175.421  0.00  0.00     0.195 C 
ATOM      3  C1  IDS d 504     -14.086  48.497 174.755  0.00  0.00     0.294 C 
ATOM      4  O5  IDS d 504     -14.783  49.335 173.827  0.00  0.00    -0.340 OA
ATOM      5  C2  IDS d 504     -14.562  48.726 176.175  0.00  0.00     0.231 C 
ATOM      6  C5  IDS d 504     -14.672  50.715 174.095  0.00  0.00     0.257 C 
ENDROOT
BRANCH   2   7
ATOM      7  O4  IDS d 504     -16.728  50.697 175.366  0.00  0.00    -0.348 OA
BRANCH   7   8
ATOM      8  C1  SGN d 505     -17.476  51.163 176.456  0.00  0.00     0.282 C 
ATOM      9  O5  SGN d 505     -17.447  52.561 176.505  0.00  0.00    -0.349 OA
ATOM     10  C5  SGN d 505     -18.056  53.175 175.410  0.00  0.00     0.181 C 
ATOM     11  C4  SGN d 505     -19.518  52.864 175.386  0.00  0.00     0.186 C 
ATOM     12  C3  SGN d 505     -19.643  51.326 175.187  0.00  0.00     0.173 C 
ATOM     13  C2  SGN d 505     -18.915  50.690 176.387  0.00  0.00     0.157 C 
BRANCH  10  14
ATOM     14  C6  SGN d 505     -17.776  54.637 175.540  0.00  0.00     0.227 C 
BRANCH  14  15
ATOM     15  O6  SGN d 505     -16.411  54.765 175.328  0.00  0.00    -0.254 OA
BRANCH  15  16
ATOM     16  S2  SGN d 505     -15.388  55.388 176.267  0.00  0.00     0.251 S 
ATOM     17  O5S SGN d 505     -14.376  55.927 175.393  0.00  0.00    -0.572 OA
ATOM     18  O4S SGN d 505     -14.940  54.294 177.099  0.00  0.00    -0.572 OA
ATOM     19  O6S SGN d 505     -16.081  56.423 177.022  0.00  0.00    -0.572 OA
ENDBRANCH  15  16
ENDBRANCH  14  15
ENDBRANCH  10  14
BRANCH  11  20
ATOM     20  O4  SGN d 505     -20.063  53.659 174.354  0.00  0.00    -0.348 OA
BRANCH  20  21
ATOM     21  C1  IDS d 506     -21.241  54.379 174.481  0.00  0.00     0.294 C 
ATOM     22  C2  IDS d 506     -21.672  54.876 173.093  0.00  0.00     0.231 C 
ATOM     23  C3  IDS d 506     -22.777  55.967 173.147  0.00  0.00     0.185 C 
ATOM     24  C4  IDS d 506     -22.616  56.958 174.319  0.00  0.00     0.189 C 
ATOM     25  C5  IDS d 506     -22.127  56.234 175.578  0.00  0.00     0.256 C 
ATOM     26  O5  IDS d 506     -20.985  55.497 175.292  0.00  0.00    -0.340 OA
BRANCH  22  27
ATOM     27  O2  IDS d 506     -20.568  55.445 172.417  0.00  0.00    -0.244 OA
BRANCH  27  28
ATOM     28  S   IDS d 506     -19.839  54.920 171.106  0.00  0.00     0.252 S 
ATOM     29  O1S IDS d 506     -20.600  53.782 170.689  0.00  0.00    -0.572 OA
ATOM     30  O2S IDS d 506     -19.888  55.962 170.120  0.00  0.00    -0.572 OA
ATOM     31  O3S IDS d 506     -18.493  54.585 171.519  0.00  0.00    -0.572 OA
ENDBRANCH  27  28
ENDBRANCH  22  27
BRANCH  23  32
ATOM     32  O3  IDS d 506     -24.043  55.322 173.269  0.00  0.00    -0.390 OA
ATOM     33  H   IDS d 506     -24.748  55.988 173.249  0.00  0.00     0.210 HD
ENDBRANCH  23  32
BRANCH  24  34
ATOM     34  O4  IDS d 506     -21.667  57.921 173.925  0.00  0.00    -0.390 OA
ATOM     35  H   IDS d 506     -21.429  58.472 174.687  0.00  0.00     0.210 HD
ENDBRANCH  24  34
BRANCH  25  36
ATOM     36  C6  IDS d 506     -21.878  57.096 176.802  0.00  0.00     0.206 C 
ATOM     37  O62 IDS d 506     -22.226  56.750 177.918  0.00  0.00    -0.646 OA
ATOM     38  O61 IDS d 506     -21.297  58.166 176.688  0.00  0.00    -0.646 OA
ENDBRANCH  25  36
ENDBRANCH  20  21
ENDBRANCH  11  20
BRANCH  12  39
ATOM     39  O3  SGN d 505     -21.007  50.927 175.223  0.00  0.00    -0.391 OA
ATOM     40  H   SGN d 505     -21.141  50.298 175.949  0.00  0.00     0.210 HD
ENDBRANCH  12  39
BRANCH  13  41
ATOM     41  N   SGN d 505     -18.946  49.210 176.436  0.00  0.00    -0.210 NA
ATOM     42  H   SGN d 505     -18.174  48.907 177.029  0.00  0.00     0.140 HD
BRANCH  41  43
ATOM     43  S1  SGN d 505     -20.340  48.484 177.018  0.00  0.00     0.156 S 
BRANCH  43  44
ATOM     44  O3S SGN d 505     -19.931  47.427 177.873  0.00  0.00    -0.296 OA
ATOM     45  H   SGN d 505     -20.098  47.674 178.795  0.00  0.00     0.231 HD
ENDBRANCH  43  44
BRANCH  43  46
ATOM     46  O1S SGN d 505     -21.109  49.501 177.704  0.00  0.00    -0.296 OA
ATOM     47  H   SGN d 505     -22.015  49.184 177.839  0.00  0.00     0.231 HD
ENDBRANCH  43  46
BRANCH  43  48
ATOM     48  O2S SGN d 505     -21.015  47.980 175.845  0.00  0.00    -0.296 OA
ATOM     49  H   SGN d 505     -21.038  47.011 175.876  0.00  0.00     0.231 HD
ENDBRANCH  43  48
ENDBRANCH  41  43
ENDBRANCH  13  41
ENDBRANCH   7   8
ENDBRANCH   2   7
BRANCH   1  50
ATOM     50  O3  IDS d 504     -13.378  50.807 176.706  0.00  0.00    -0.390 OA
ATOM     51  H   IDS d 504     -13.064  50.618 177.604  0.00  0.00     0.210 HD
ENDBRANCH   1  50
BRANCH   6  52
ATOM     52  C6  IDS d 504     -15.156  51.537 172.889  0.00  0.00     0.206 C 
ATOM     53  O62 IDS d 504     -15.094  51.086 171.744  0.00  0.00    -0.646 OA
ATOM     54  O61 IDS d 504     -15.599  52.669 173.036  0.00  0.00    -0.646 OA
ENDBRANCH   6  52
BRANCH   5  55
ATOM     55  O2  IDS d 504     -15.824  48.080 176.335  0.00  0.00    -0.244 OA
BRANCH  55  56
ATOM     56  S   IDS d 504     -16.066  46.644 176.836  0.00  0.00     0.252 S 
ATOM     57  O2S IDS d 504     -14.983  46.302 177.711  0.00  0.00    -0.572 OA
ATOM     58  O3S IDS d 504     -17.334  46.717 177.458  0.00  0.00    -0.572 OA
ATOM     59  O1S IDS d 504     -16.088  45.817 175.685  0.00  0.00    -0.572 OA
ENDBRANCH  55  56
ENDBRANCH   5  55
BRANCH   3  60
ATOM     60  O4  SGN d 503     -12.702  48.692 174.719  0.00  0.00    -0.348 OA
BRANCH  60  61
ATOM     61  C4  SGN d 503     -12.031  47.836 173.853  0.00  0.00     0.186 C 
ATOM     62  C5  SGN d 503     -10.664  47.486 174.465  0.00  0.00     0.181 C 
ATOM     63  O5  SGN d 503      -9.906  46.713 173.589  0.00  0.00    -0.349 OA
ATOM     64  C1  SGN d 503      -9.615  47.365 172.378  0.00  0.00     0.282 C 
ATOM     65  C2  SGN d 503     -10.924  47.705 171.651  0.00  0.00     0.157 C 
ATOM     66  C3  SGN d 503     -11.842  48.548 172.516  0.00  0.00     0.173 C 
BRANCH  62  67
ATOM     67  C6  SGN d 503     -10.738  46.667 175.726  0.00  0.00     0.227 C 
BRANCH  67  68
ATOM     68  O6  SGN d 503     -11.934  45.920 175.678  0.00  0.00    -0.254 OA
BRANCH  68  69
ATOM     69  S2  SGN d 503     -12.122  44.482 176.228  0.00  0.00     0.251 S 
ATOM     70  O6S SGN d 503     -10.927  43.825 175.867  0.00  0.00    -0.572 OA
ATOM     71  O4S SGN d 503     -12.231  44.555 177.645  0.00  0.00    -0.572 OA
ATOM     72  O5S SGN d 503     -13.333  43.945 175.615  0.00  0.00    -0.572 OA
ENDBRANCH  68  69
ENDBRANCH  67  68
ENDBRANCH  62  67
BRANCH  64  73
ATOM     73  O4  IDS d 502      -8.846  48.518 172.588  0.00  0.00    -0.348 OA
BRANCH  73  74
ATOM     74  C4  IDS d 502      -7.609  48.293 173.215  0.00  0.00     0.195 C 
ATOM     75  C3  IDS d 502      -6.626  47.664 172.210  0.00  0.00     0.185 C 
ATOM     76  C2  IDS d 502      -6.216  48.677 171.137  0.00  0.00     0.231 C 
ATOM     77  C1  IDS d 502      -5.799  50.013 171.746  0.00  0.00     0.291 C 
ATOM     78  O5  IDS d 502      -6.768  50.488 172.647  0.00  0.00    -0.340 OA
ATOM     79  C5  IDS d 502      -7.051  49.619 173.726  0.00  0.00     0.257 C 
BRANCH  75  80
ATOM     80  O3  IDS d 502      -5.460  47.259 172.900  0.00  0.00    -0.390 OA
ATOM     81  H   IDS d 502      -4.815  46.908 172.266  0.00  0.00     0.210 HD
ENDBRANCH  75  80
BRANCH  76  82
ATOM     82  O2  IDS d 502      -7.337  48.901 170.325  0.00  0.00    -0.244 OA
BRANCH  82  83
ATOM     83  S   IDS d 502      -7.580  48.387 168.867  0.00  0.00     0.252 S 
ATOM     84  O3S IDS d 502      -8.395  49.402 168.251  0.00  0.00    -0.572 OA
ATOM     85  O2S IDS d 502      -8.244  47.111 169.005  0.00  0.00    -0.572 OA
ATOM     86  O1S IDS d 502      -6.295  48.269 168.236  0.00  0.00    -0.572 OA
ENDBRANCH  82  83
ENDBRANCH  76  82
BRANCH  77  87
ATOM     87  O1  IDS d 502      -4.543  49.840 172.346  0.00  0.00    -0.368 OA
ATOM     88  H   IDS d 502      -4.091  50.697 172.402  0.00  0.00     0.212 HD
ENDBRANCH  77  87
BRANCH  79  89
ATOM     89  C6  IDS d 502      -7.930  50.311 174.758  0.00  0.00     0.206 C 
ATOM     90  O61 IDS d 502      -8.219  49.772 175.798  0.00  0.00    -0.646 OA
ATOM     91  O62 IDS d 502      -8.363  51.431 174.562  0.00  0.00    -0.646 OA
ENDBRANCH  79  89
ENDBRANCH  73  74
ENDBRANCH  64  73
BRANCH  65  92
ATOM     92  N   SGN d 503     -10.648  48.355 170.382  0.00  0.00    -0.210 NA
ATOM     93  H   SGN d 503      -9.770  47.975 170.029  0.00  0.00     0.140 HD
BRANCH  92  94
ATOM     94  S1  SGN d 503     -11.755  48.202 169.200  0.00  0.00     0.156 S 
BRANCH  94  95
ATOM     95  O2S SGN d 503     -12.631  49.373 169.240  0.00  0.00    -0.296 OA
ATOM     96  H   SGN d 503     -13.293  49.305 168.534  0.00  0.00     0.231 HD
ENDBRANCH  94  95
BRANCH  94  97
ATOM     97  O1S SGN d 503     -12.475  46.974 169.476  0.00  0.00    -0.296 OA
ATOM     98  H   SGN d 503     -12.184  46.283 168.860  0.00  0.00     0.231 HD
ENDBRANCH  94  97
BRANCH  94  99
ATOM     99  O3S SGN d 503     -10.951  48.115 168.002  0.00  0.00    -0.296 OA
ATOM    100  H   SGN d 503     -10.014  48.203 168.234  0.00  0.00     0.231 HD
ENDBRANCH  94  99
ENDBRANCH  92  94
ENDBRANCH  65  92
BRANCH  66 101
ATOM    101  O3  SGN d 503     -13.110  48.669 171.899  0.00  0.00    -0.391 OA
ATOM    102  H   SGN d 503     -13.501  49.526 172.128  0.00  0.00     0.210 HD
ENDBRANCH  66 101
ENDBRANCH  60  61
ENDBRANCH   3  60
TORSDOF 40
ENDMDL
MODEL 28
REMARK VINA RESULT:      -3.2      2.897     13.334
REMARK WARNING: 32 MAX_TORS EXCEEDED!!!
REMARK  40 active torsions:
REMARK  status: ('A' for Active; 'I' for Inactive)
REMARK    1 I    between atoms: C6_1  and  C5_8 
REMARK    2 I    between atoms: C6_1  and  O6_57 
REMARK    3 I    between atoms: O4_2  and  C4_49 
REMARK    4 I    between atoms: O6_3  and  C6_7 
REMARK    5 I    between atoms: O6_3  and  S2_58 
REMARK    6 I    between atoms: S_4  and  O2_6 
REMARK    7 I    between atoms: O3_5  and  C3_81 
REMARK    8 I    between atoms: O2_6  and  C2_11 
REMARK    9 I    between atoms: C6_7  and  C5_54 
REMARK   10 I    between atoms: O4_9  and  C4_32 
REMARK   11 I    between atoms: O4_9  and  C1_39 
REMARK   12 I    between atoms: O3_12  and  C3_18 
REMARK   13 I    between atoms: N_13  and  C2_52 
REMARK   14 I    between atoms: N_13  and  S1_45 
REMARK   15 I    between atoms: O3_17  and  C3_83 
REMARK   16 I    between atoms: C4_20  and  O4_44 
REMARK   17 I    between atoms: N_21  and  C2_66 
REMARK   18 I    between atoms: N_21  and  S1_53 
REMARK   19 I    between atoms: O3_22  and  C3_65 
REMARK   20 I    between atoms: C4_23  and  O4_74 
REMARK   21 I    between atoms: C1_25  and  O1_72 
REMARK   22 I    between atoms: C2_28  and  O2_69 
REMARK   23 I    between atoms: C4_33  and  O4_61 
REMARK   24 I    between atoms: O2S_34  and  S1_45 
REMARK   25 I    between atoms: C6_37  and  C5_47 
REMARK   26 I    between atoms: O2_38  and  C2_77 
REMARK   27 I    between atoms: O2_38  and  S_50 
REMARK   28 I    between atoms: O3S_40  and  S1_53 
REMARK   29 I    between atoms: O1S_42  and  S1_45 
REMARK   30 I    between atoms: O1S_43  and  S1_53 
REMARK   31 I    between atoms: O4_44  and  C1_46 
REMARK   32 I    between atoms: S1_45  and  O3S_60 
REMARK   33 I    between atoms: C6_48  and  C5_84 
REMARK   34 I    between atoms: C6_51  and  C5_87 
REMARK   35 I    between atoms: S1_53  and  O2S_55 
REMARK   36 I    between atoms: C1_56  and  O4_74 
REMARK   37 I    between atoms: O6_57  and  S2_82 
REMARK   38 I    between atoms: O4_61  and  C1_70 
REMARK   39 I    between atoms: C3_63  and  O3_79 
REMARK   40 I    between atoms: O2_69  and  S_76 
ROOT
ATOM      1  C3  IDS d 504     -15.385  47.451 173.712  0.00  0.00     0.185 C 
ATOM      2  C4  IDS d 504     -15.088  48.840 174.255  0.00  0.00     0.195 C 
ATOM      3  C1  IDS d 504     -13.567  47.886 171.947  0.00  0.00     0.294 C 
ATOM      4  O5  IDS d 504     -13.422  49.176 172.550  0.00  0.00    -0.340 OA
ATOM      5  C2  IDS d 504     -14.942  47.304 172.206  0.00  0.00     0.231 C 
ATOM      6  C5  IDS d 504     -13.635  49.193 173.943  0.00  0.00     0.257 C 
ENDROOT
BRANCH   2   7
ATOM      7  O4  IDS d 504     -15.961  49.779 173.644  0.00  0.00    -0.348 OA
BRANCH   7   8
ATOM      8  C1  SGN d 505     -17.160  49.977 174.343  0.00  0.00     0.282 C 
ATOM      9  O5  SGN d 505     -16.950  50.811 175.447  0.00  0.00    -0.349 OA
ATOM     10  C5  SGN d 505     -16.558  52.105 175.107  0.00  0.00     0.181 C 
ATOM     11  C4  SGN d 505     -17.649  52.799 174.358  0.00  0.00     0.186 C 
ATOM     12  C3  SGN d 505     -17.850  52.010 173.032  0.00  0.00     0.173 C 
ATOM     13  C2  SGN d 505     -18.231  50.577 173.453  0.00  0.00     0.157 C 
BRANCH  10  14
ATOM     14  C6  SGN d 505     -16.209  52.788 176.389  0.00  0.00     0.227 C 
BRANCH  14  15
ATOM     15  O6  SGN d 505     -16.206  51.784 177.346  0.00  0.00    -0.254 OA
BRANCH  15  16
ATOM     16  S2  SGN d 505     -15.038  51.347 178.219  0.00  0.00     0.251 S 
ATOM     17  O5S SGN d 505     -13.963  52.237 177.857  0.00  0.00    -0.572 OA
ATOM     18  O4S SGN d 505     -14.815  49.963 177.869  0.00  0.00    -0.572 OA
ATOM     19  O6S SGN d 505     -15.459  51.516 179.604  0.00  0.00    -0.572 OA
ENDBRANCH  15  16
ENDBRANCH  14  15
ENDBRANCH  10  14
BRANCH  11  20
ATOM     20  O4  SGN d 505     -17.224  54.138 174.212  0.00  0.00    -0.348 OA
BRANCH  20  21
ATOM     21  C1  IDS d 506     -18.094  55.204 174.038  0.00  0.00     0.294 C 
ATOM     22  C2  IDS d 506     -17.280  56.505 173.978  0.00  0.00     0.231 C 
ATOM     23  C3  IDS d 506     -18.152  57.783 174.124  0.00  0.00     0.185 C 
ATOM     24  C4  IDS d 506     -19.312  57.631 175.131  0.00  0.00     0.189 C 
ATOM     25  C5  IDS d 506     -19.931  56.232 175.039  0.00  0.00     0.256 C 
ATOM     26  O5  IDS d 506     -18.941  55.264 175.157  0.00  0.00    -0.340 OA
BRANCH  22  27
ATOM     27  O2  IDS d 506     -16.331  56.534 175.026  0.00  0.00    -0.244 OA
BRANCH  27  28
ATOM     28  S   IDS d 506     -14.755  56.705 174.921  0.00  0.00     0.252 S 
ATOM     29  O1S IDS d 506     -14.260  56.391 176.226  0.00  0.00    -0.572 OA
ATOM     30  O2S IDS d 506     -14.268  55.770 173.946  0.00  0.00    -0.572 OA
ATOM     31  O3S IDS d 506     -14.539  58.086 174.547  0.00  0.00    -0.572 OA
ENDBRANCH  27  28
ENDBRANCH  22  27
BRANCH  23  32
ATOM     32  O3  IDS d 506     -18.698  58.107 172.848  0.00  0.00    -0.390 OA
ATOM     33  H   IDS d 506     -19.442  57.515 172.655  0.00  0.00     0.210 HD
ENDBRANCH  23  32
BRANCH  24  34
ATOM     34  O4  IDS d 506     -18.777  57.831 176.419  0.00  0.00    -0.390 OA
ATOM     35  H   IDS d 506     -17.966  58.358 176.354  0.00  0.00     0.210 HD
ENDBRANCH  24  34
BRANCH  25  36
ATOM     36  C6  IDS d 506     -21.057  55.923 176.008  0.00  0.00     0.206 C 
ATOM     37  O62 IDS d 506     -21.089  56.392 177.132  0.00  0.00    -0.646 OA
ATOM     38  O61 IDS d 506     -21.978  55.195 175.663  0.00  0.00    -0.646 OA
ENDBRANCH  25  36
ENDBRANCH  20  21
ENDBRANCH  11  20
BRANCH  12  39
ATOM     39  O3  SGN d 505     -18.926  52.560 172.282  0.00  0.00    -0.391 OA
ATOM     40  H   SGN d 505     -19.603  51.880 172.140  0.00  0.00     0.210 HD
ENDBRANCH  12  39
BRANCH  13  41
ATOM     41  N   SGN d 505     -18.521  49.645 172.340  0.00  0.00    -0.210 NA
ATOM     42  H   SGN d 505     -18.026  48.774 172.532  0.00  0.00     0.140 HD
BRANCH  41  43
ATOM     43  S1  SGN d 505     -20.127  49.257 172.055  0.00  0.00     0.156 S 
BRANCH  43  44
ATOM     44  O3S SGN d 505     -20.325  49.320 170.650  0.00  0.00    -0.296 OA
ATOM     45  H   SGN d 505     -19.932  48.537 170.233  0.00  0.00     0.231 HD
ENDBRANCH  43  44
BRANCH  43  46
ATOM     46  O1S SGN d 505     -20.361  47.936 172.600  0.00  0.00    -0.296 OA
ATOM     47  H   SGN d 505     -21.172  47.945 173.130  0.00  0.00     0.231 HD
ENDBRANCH  43  46
BRANCH  43  48
ATOM     48  O2S SGN d 505     -20.884  50.278 172.739  0.00  0.00    -0.296 OA
ATOM     49  H   SGN d 505     -21.705  49.895 173.086  0.00  0.00     0.231 HD
ENDBRANCH  43  48
ENDBRANCH  41  43
ENDBRANCH  13  41
ENDBRANCH   7   8
ENDBRANCH   2   7
BRANCH   1  50
ATOM     50  O3  IDS d 504     -14.662  46.525 174.514  0.00  0.00    -0.390 OA
ATOM     51  H   IDS d 504     -14.516  45.708 174.011  0.00  0.00     0.210 HD
ENDBRANCH   1  50
BRANCH   6  52
ATOM     52  C6  IDS d 504     -13.141  50.519 174.547  0.00  0.00     0.206 C 
ATOM     53  O62 IDS d 504     -13.354  51.594 173.982  0.00  0.00    -0.646 OA
ATOM     54  O61 IDS d 504     -12.509  50.537 175.595  0.00  0.00    -0.646 OA
ENDBRANCH   6  52
BRANCH   5  55
ATOM     55  O2  IDS d 504     -15.874  47.958 171.346  0.00  0.00    -0.244 OA
BRANCH  55  56
ATOM     56  S   IDS d 504     -16.394  47.443 169.991  0.00  0.00     0.252 S 
ATOM     57  O2S IDS d 504     -17.772  47.823 169.883  0.00  0.00    -0.572 OA
ATOM     58  O3S IDS d 504     -15.532  48.054 169.050  0.00  0.00    -0.572 OA
ATOM     59  O1S IDS d 504     -16.241  46.034 170.014  0.00  0.00    -0.572 OA
ENDBRANCH  55  56
ENDBRANCH   5  55
BRANCH   3  60
ATOM     60  O4  SGN d 503     -12.611  46.972 172.401  0.00  0.00    -0.348 OA
BRANCH  60  61
ATOM     61  C4  SGN d 503     -11.488  46.877 171.586  0.00  0.00     0.186 C 
ATOM     62  C5  SGN d 503     -11.202  45.390 171.313  0.00  0.00     0.181 C 
ATOM     63  O5  SGN d 503     -10.023  45.232 170.587  0.00  0.00    -0.349 OA
ATOM     64  C1  SGN d 503      -8.885  45.712 171.259  0.00  0.00     0.282 C 
ATOM     65  C2  SGN d 503      -9.043  47.216 171.526  0.00  0.00     0.157 C 
ATOM     66  C3  SGN d 503     -10.306  47.515 172.313  0.00  0.00     0.173 C 
BRANCH  62  67
ATOM     67  C6  SGN d 503     -12.251  44.696 170.487  0.00  0.00     0.227 C 
BRANCH  67  68
ATOM     68  O6  SGN d 503     -12.437  43.407 171.030  0.00  0.00    -0.254 OA
BRANCH  68  69
ATOM     69  S2  SGN d 503     -13.788  42.816 171.510  0.00  0.00     0.251 S 
ATOM     70  O6S SGN d 503     -13.479  41.473 171.812  0.00  0.00    -0.572 OA
ATOM     71  O4S SGN d 503     -14.184  43.504 172.692  0.00  0.00    -0.572 OA
ATOM     72  O5S SGN d 503     -14.746  43.002 170.424  0.00  0.00    -0.572 OA
ENDBRANCH  68  69
ENDBRANCH  67  68
ENDBRANCH  62  67
BRANCH  64  73
ATOM     73  O4  IDS d 502      -8.661  45.012 172.452  0.00  0.00    -0.348 OA
BRANCH  73  74
ATOM     74  C4  IDS d 502      -7.854  43.871 172.322  0.00  0.00     0.195 C 
ATOM     75  C3  IDS d 502      -6.386  44.240 172.609  0.00  0.00     0.185 C 
ATOM     76  C2  IDS d 502      -6.181  44.560 174.092  0.00  0.00     0.231 C 
ATOM     77  C1  IDS d 502      -6.800  43.497 174.994  0.00  0.00     0.291 C 
ATOM     78  O5  IDS d 502      -8.135  43.240 174.640  0.00  0.00    -0.340 OA
ATOM     79  C5  IDS d 502      -8.322  42.802 173.308  0.00  0.00     0.257 C 
BRANCH  75  80
ATOM     80  O3  IDS d 502      -5.562  43.139 172.280  0.00  0.00    -0.390 OA
ATOM     81  H   IDS d 502      -5.544  42.516 173.023  0.00  0.00     0.210 HD
ENDBRANCH  75  80
BRANCH  76  82
ATOM     82  O2  IDS d 502      -6.828  45.778 174.349  0.00  0.00    -0.244 OA
BRANCH  82  83
ATOM     83  S   IDS d 502      -6.224  47.064 175.004  0.00  0.00     0.252 S 
ATOM     84  O3S IDS d 502      -5.274  47.556 174.039  0.00  0.00    -0.572 OA
ATOM     85  O2S IDS d 502      -5.622  46.630 176.243  0.00  0.00    -0.572 OA
ATOM     86  O1S IDS d 502      -7.306  47.984 175.214  0.00  0.00    -0.572 OA
ENDBRANCH  82  83
ENDBRANCH  76  82
BRANCH  77  87
ATOM     87  O1  IDS d 502      -5.993  42.351 174.926  0.00  0.00    -0.368 OA
ATOM     88  H   IDS d 502      -5.885  42.087 173.999  0.00  0.00     0.212 HD
ENDBRANCH  77  87
BRANCH  79  89
ATOM     89  C6  IDS d 502      -9.754  42.336 173.090  0.00  0.00     0.206 C 
ATOM     90  O61 IDS d 502     -10.654  42.727 173.792  0.00  0.00    -0.646 OA
ATOM     91  O62 IDS d 502     -10.030  41.559 172.197  0.00  0.00    -0.646 OA
ENDBRANCH  79  89
ENDBRANCH  73  74
ENDBRANCH  64  73
BRANCH  65  92
ATOM     92  N   SGN d 503      -7.866  47.740 172.196  0.00  0.00    -0.210 NA
ATOM     93  H   SGN d 503      -7.094  47.103 172.000  0.00  0.00     0.140 HD
BRANCH  92  94
ATOM     94  S1  SGN d 503      -7.375  49.239 171.794  0.00  0.00     0.156 S 
BRANCH  94  95
ATOM     95  O2S SGN d 503      -5.927  49.206 171.592  0.00  0.00    -0.296 OA
ATOM     96  H   SGN d 503      -5.733  48.899 170.693  0.00  0.00     0.231 HD
ENDBRANCH  94  95
BRANCH  94  97
ATOM     97  O1S SGN d 503      -7.752  50.099 172.899  0.00  0.00    -0.296 OA
ATOM     98  H   SGN d 503      -8.108  49.558 173.622  0.00  0.00     0.231 HD
ENDBRANCH  94  97
BRANCH  94  99
ATOM     99  O3S SGN d 503      -8.126  49.522 170.592  0.00  0.00    -0.296 OA
ATOM    100  H   SGN d 503      -8.687  48.761 170.375  0.00  0.00     0.231 HD
ENDBRANCH  94  99
ENDBRANCH  92  94
ENDBRANCH  65  92
BRANCH  66 101
ATOM    101  O3  SGN d 503     -10.523  48.912 172.365  0.00  0.00    -0.391 OA
ATOM    102  H   SGN d 503     -11.437  49.088 172.637  0.00  0.00     0.210 HD
ENDBRANCH  66 101
ENDBRANCH  60  61
ENDBRANCH   3  60
TORSDOF 40
ENDMDL
MODEL 29
REMARK VINA RESULT:      -3.1      1.368      2.137
REMARK WARNING: 32 MAX_TORS EXCEEDED!!!
REMARK  40 active torsions:
REMARK  status: ('A' for Active; 'I' for Inactive)
REMARK    1 I    between atoms: C6_1  and  C5_8 
REMARK    2 I    between atoms: C6_1  and  O6_57 
REMARK    3 I    between atoms: O4_2  and  C4_49 
REMARK    4 I    between atoms: O6_3  and  C6_7 
REMARK    5 I    between atoms: O6_3  and  S2_58 
REMARK    6 I    between atoms: S_4  and  O2_6 
REMARK    7 I    between atoms: O3_5  and  C3_81 
REMARK    8 I    between atoms: O2_6  and  C2_11 
REMARK    9 I    between atoms: C6_7  and  C5_54 
REMARK   10 I    between atoms: O4_9  and  C4_32 
REMARK   11 I    between atoms: O4_9  and  C1_39 
REMARK   12 I    between atoms: O3_12  and  C3_18 
REMARK   13 I    between atoms: N_13  and  C2_52 
REMARK   14 I    between atoms: N_13  and  S1_45 
REMARK   15 I    between atoms: O3_17  and  C3_83 
REMARK   16 I    between atoms: C4_20  and  O4_44 
REMARK   17 I    between atoms: N_21  and  C2_66 
REMARK   18 I    between atoms: N_21  and  S1_53 
REMARK   19 I    between atoms: O3_22  and  C3_65 
REMARK   20 I    between atoms: C4_23  and  O4_74 
REMARK   21 I    between atoms: C1_25  and  O1_72 
REMARK   22 I    between atoms: C2_28  and  O2_69 
REMARK   23 I    between atoms: C4_33  and  O4_61 
REMARK   24 I    between atoms: O2S_34  and  S1_45 
REMARK   25 I    between atoms: C6_37  and  C5_47 
REMARK   26 I    between atoms: O2_38  and  C2_77 
REMARK   27 I    between atoms: O2_38  and  S_50 
REMARK   28 I    between atoms: O3S_40  and  S1_53 
REMARK   29 I    between atoms: O1S_42  and  S1_45 
REMARK   30 I    between atoms: O1S_43  and  S1_53 
REMARK   31 I    between atoms: O4_44  and  C1_46 
REMARK   32 I    between atoms: S1_45  and  O3S_60 
REMARK   33 I    between atoms: C6_48  and  C5_84 
REMARK   34 I    between atoms: C6_51  and  C5_87 
REMARK   35 I    between atoms: S1_53  and  O2S_55 
REMARK   36 I    between atoms: C1_56  and  O4_74 
REMARK   37 I    between atoms: O6_57  and  S2_82 
REMARK   38 I    between atoms: O4_61  and  C1_70 
REMARK   39 I    between atoms: C3_63  and  O3_79 
REMARK   40 I    between atoms: O2_69  and  S_76 
ROOT
ATOM      1  C3  IDS d 504     -16.789  49.570 175.395  0.00  0.00     0.185 C 
ATOM      2  C4  IDS d 504     -16.100  49.264 174.074  0.00  0.00     0.195 C 
ATOM      3  C1  IDS d 504     -16.690  52.052 174.729  0.00  0.00     0.294 C 
ATOM      4  O5  IDS d 504     -16.022  51.611 173.542  0.00  0.00    -0.340 OA
ATOM      5  C2  IDS d 504     -16.529  51.055 175.859  0.00  0.00     0.231 C 
ATOM      6  C5  IDS d 504     -16.454  50.356 173.066  0.00  0.00     0.257 C 
ENDROOT
BRANCH   2   7
ATOM      7  O4  IDS d 504     -14.695  49.222 174.275  0.00  0.00    -0.348 OA
BRANCH   7   8
ATOM      8  C1  SGN d 505     -14.223  47.978 174.717  0.00  0.00     0.282 C 
ATOM      9  O5  SGN d 505     -14.106  47.090 173.641  0.00  0.00    -0.349 OA
ATOM     10  C5  SGN d 505     -13.158  47.478 172.694  0.00  0.00     0.181 C 
ATOM     11  C4  SGN d 505     -11.790  47.469 173.294  0.00  0.00     0.186 C 
ATOM     12  C3  SGN d 505     -11.790  48.544 174.419  0.00  0.00     0.173 C 
ATOM     13  C2  SGN d 505     -12.882  48.106 175.413  0.00  0.00     0.157 C 
BRANCH  10  14
ATOM     14  C6  SGN d 505     -13.296  46.527 171.550  0.00  0.00     0.227 C 
BRANCH  14  15
ATOM     15  O6  SGN d 505     -14.661  46.418 171.331  0.00  0.00    -0.254 OA
BRANCH  15  16
ATOM     16  S2  SGN d 505     -15.430  45.175 170.908  0.00  0.00     0.251 S 
ATOM     17  O5S SGN d 505     -15.883  44.591 172.146  0.00  0.00    -0.572 OA
ATOM     18  O4S SGN d 505     -14.468  44.375 170.185  0.00  0.00    -0.572 OA
ATOM     19  O6S SGN d 505     -16.533  45.624 170.068  0.00  0.00    -0.572 OA
ENDBRANCH  15  16
ENDBRANCH  14  15
ENDBRANCH  10  14
BRANCH  11  20
ATOM     20  O4  SGN d 505     -10.899  47.706 172.224  0.00  0.00    -0.348 OA
BRANCH  20  21
ATOM     21  C1  IDS d 506      -9.686  47.051 172.075  0.00  0.00     0.294 C 
ATOM     22  C2  IDS d 506      -8.972  47.602 170.833  0.00  0.00     0.231 C 
ATOM     23  C3  IDS d 506      -7.776  46.725 170.371  0.00  0.00     0.185 C 
ATOM     24  C4  IDS d 506      -8.022  45.209 170.524  0.00  0.00     0.189 C 
ATOM     25  C5  IDS d 506      -8.797  44.912 171.812  0.00  0.00     0.256 C 
ATOM     26  O5  IDS d 506      -9.949  45.686 171.865  0.00  0.00    -0.340 OA
BRANCH  22  27
ATOM     27  O2  IDS d 506      -9.872  47.672 169.745  0.00  0.00    -0.244 OA
BRANCH  27  28
ATOM     28  S   IDS d 506      -9.606  48.230 168.281  0.00  0.00     0.252 S 
ATOM     29  O1S IDS d 506     -10.898  48.578 167.775  0.00  0.00    -0.572 OA
ATOM     30  O2S IDS d 506      -8.766  49.389 168.391  0.00  0.00    -0.572 OA
ATOM     31  O3S IDS d 506      -8.985  47.140 167.559  0.00  0.00    -0.572 OA
ENDBRANCH  27  28
ENDBRANCH  22  27
BRANCH  23  32
ATOM     32  O3  IDS d 506      -6.631  47.078 171.143  0.00  0.00    -0.390 OA
ATOM     33  H   IDS d 506      -6.289  46.290 171.594  0.00  0.00     0.210 HD
ENDBRANCH  23  32
BRANCH  24  34
ATOM     34  O4  IDS d 506      -8.776  44.793 169.410  0.00  0.00    -0.390 OA
ATOM     35  H   IDS d 506      -8.511  43.894 169.157  0.00  0.00     0.210 HD
ENDBRANCH  24  34
BRANCH  25  36
ATOM     36  C6  IDS d 506      -9.153  43.460 172.071  0.00  0.00     0.206 C 
ATOM     37  O62 IDS d 506      -8.686  42.837 173.009  0.00  0.00    -0.646 OA
ATOM     38  O61 IDS d 506      -9.944  42.884 171.337  0.00  0.00    -0.646 OA
ENDBRANCH  25  36
ENDBRANCH  20  21
ENDBRANCH  11  20
BRANCH  12  39
ATOM     39  O3  SGN d 505     -10.540  48.556 175.097  0.00  0.00    -0.391 OA
ATOM     40  H   SGN d 505     -10.577  49.189 175.832  0.00  0.00     0.210 HD
ENDBRANCH  12  39
BRANCH  13  41
ATOM     41  N   SGN d 505     -13.032  48.966 176.610  0.00  0.00    -0.210 NA
ATOM     42  H   SGN d 505     -13.639  49.745 176.352  0.00  0.00     0.140 HD
BRANCH  41  43
ATOM     43  S1  SGN d 505     -13.674  48.267 177.991  0.00  0.00     0.156 S 
BRANCH  43  44
ATOM     44  O3S SGN d 505     -13.208  49.027 179.095  0.00  0.00    -0.296 OA
ATOM     45  H   SGN d 505     -13.588  48.674 179.914  0.00  0.00     0.231 HD
ENDBRANCH  43  44
BRANCH  43  46
ATOM     46  O1S SGN d 505     -15.116  48.284 177.861  0.00  0.00    -0.296 OA
ATOM     47  H   SGN d 505     -15.355  48.333 176.922  0.00  0.00     0.231 HD
ENDBRANCH  43  46
BRANCH  43  48
ATOM     48  O2S SGN d 505     -13.138  46.926 178.011  0.00  0.00    -0.296 OA
ATOM     49  H   SGN d 505     -13.856  46.288 177.871  0.00  0.00     0.231 HD
ENDBRANCH  43  48
ENDBRANCH  41  43
ENDBRANCH  13  41
ENDBRANCH   7   8
ENDBRANCH   2   7
BRANCH   1  50
ATOM     50  O3  IDS d 504     -18.183  49.370 175.196  0.00  0.00    -0.390 OA
ATOM     51  H   IDS d 504     -18.463  48.565 175.660  0.00  0.00     0.210 HD
ENDBRANCH   1  50
BRANCH   6  52
ATOM     52  C6  IDS d 504     -15.938  50.117 171.637  0.00  0.00     0.206 C 
ATOM     53  O62 IDS d 504     -15.029  50.803 171.164  0.00  0.00    -0.646 OA
ATOM     54  O61 IDS d 504     -16.431  49.250 170.926  0.00  0.00    -0.646 OA
ENDBRANCH   6  52
BRANCH   5  55
ATOM     55  O2  IDS d 504     -15.212  51.188 176.390  0.00  0.00    -0.244 OA
BRANCH  55  56
ATOM     56  S   IDS d 504     -14.811  51.927 177.680  0.00  0.00     0.252 S 
ATOM     57  O2S IDS d 504     -15.247  53.287 177.554  0.00  0.00    -0.572 OA
ATOM     58  O3S IDS d 504     -15.453  51.188 178.701  0.00  0.00    -0.572 OA
ATOM     59  O1S IDS d 504     -13.399  51.837 177.769  0.00  0.00    -0.572 OA
ENDBRANCH  55  56
ENDBRANCH   5  55
BRANCH   3  60
ATOM     60  O4  SGN d 503     -18.056  52.270 174.526  0.00  0.00    -0.348 OA
BRANCH  60  61
ATOM     61  C4  SGN d 503     -18.339  53.296 173.631  0.00  0.00     0.186 C 
ATOM     62  C5  SGN d 503     -18.505  54.606 174.420  0.00  0.00     0.181 C 
ATOM     63  O5  SGN d 503     -18.895  55.649 173.582  0.00  0.00    -0.349 OA
ATOM     64  C1  SGN d 503     -20.136  55.430 172.959  0.00  0.00     0.282 C 
ATOM     65  C2  SGN d 503     -20.057  54.168 172.088  0.00  0.00     0.157 C 
ATOM     66  C3  SGN d 503     -19.634  52.956 172.898  0.00  0.00     0.173 C 
BRANCH  62  67
ATOM     67  C6  SGN d 503     -17.246  55.100 175.079  0.00  0.00     0.227 C 
BRANCH  67  68
ATOM     68  O6  SGN d 503     -16.347  55.468 174.056  0.00  0.00    -0.254 OA
BRANCH  68  69
ATOM     69  S2  SGN d 503     -14.815  55.651 174.223  0.00  0.00     0.251 S 
ATOM     70  O6S SGN d 503     -14.650  55.845 175.611  0.00  0.00    -0.572 OA
ATOM     71  O4S SGN d 503     -14.173  54.447 173.817  0.00  0.00    -0.572 OA
ATOM     72  O5S SGN d 503     -14.427  56.785 173.389  0.00  0.00    -0.572 OA
ENDBRANCH  68  69
ENDBRANCH  67  68
ENDBRANCH  62  67
BRANCH  64  73
ATOM     73  O4  IDS d 502     -21.171  55.327 173.899  0.00  0.00    -0.348 OA
BRANCH  73  74
ATOM     74  C4  IDS d 502     -21.933  56.495 174.065  0.00  0.00     0.195 C 
ATOM     75  C3  IDS d 502     -23.284  56.337 173.342  0.00  0.00     0.185 C 
ATOM     76  C2  IDS d 502     -24.174  55.317 174.060  0.00  0.00     0.231 C 
ATOM     77  C1  IDS d 502     -24.236  55.574 175.562  0.00  0.00     0.291 C 
ATOM     78  O5  IDS d 502     -22.949  55.703 176.112  0.00  0.00    -0.340 OA
ATOM     79  C5  IDS d 502     -22.167  56.741 175.554  0.00  0.00     0.257 C 
BRANCH  75  80
ATOM     80  O3  IDS d 502     -23.955  57.582 173.345  0.00  0.00    -0.390 OA
ATOM     81  H   IDS d 502     -23.892  57.984 172.464  0.00  0.00     0.210 HD
ENDBRANCH  75  80
BRANCH  76  82
ATOM     82  O2  IDS d 502     -23.604  54.052 173.858  0.00  0.00    -0.244 OA
BRANCH  82  83
ATOM     83  S   IDS d 502     -24.151  52.885 172.971  0.00  0.00     0.252 S 
ATOM     84  O3S IDS d 502     -24.383  53.482 171.681  0.00  0.00    -0.572 OA
ATOM     85  O2S IDS d 502     -25.353  52.424 173.625  0.00  0.00    -0.572 OA
ATOM     86  O1S IDS d 502     -23.132  51.873 172.922  0.00  0.00    -0.572 OA
ENDBRANCH  82  83
ENDBRANCH  76  82
BRANCH  77  87
ATOM     87  O1  IDS d 502     -25.029  56.712 175.773  0.00  0.00    -0.368 OA
ATOM     88  H   IDS d 502     -24.902  57.335 175.040  0.00  0.00     0.212 HD
ENDBRANCH  77  87
BRANCH  79  89
ATOM     89  C6  IDS d 502     -20.893  56.948 176.360  0.00  0.00     0.206 C 
ATOM     90  O61 IDS d 502     -20.464  56.085 177.088  0.00  0.00    -0.646 OA
ATOM     91  O62 IDS d 502     -20.268  57.989 176.288  0.00  0.00    -0.646 OA
ENDBRANCH  79  89
ENDBRANCH  73  74
ENDBRANCH  64  73
BRANCH  65  92
ATOM     92  N   SGN d 503     -21.321  53.937 171.411  0.00  0.00    -0.210 NA
ATOM     93  H   SGN d 503     -21.939  54.715 171.645  0.00  0.00     0.140 HD
BRANCH  92  94
ATOM     94  S1  SGN d 503     -21.294  53.807 169.790  0.00  0.00     0.156 S 
BRANCH  94  95
ATOM     95  O2S SGN d 503     -21.210  52.388 169.447  0.00  0.00    -0.296 OA
ATOM     96  H   SGN d 503     -20.446  52.240 168.868  0.00  0.00     0.231 HD
ENDBRANCH  94  95
BRANCH  94  97
ATOM     97  O1S SGN d 503     -20.128  54.545 169.344  0.00  0.00    -0.296 OA
ATOM     98  H   SGN d 503     -19.636  54.013 168.699  0.00  0.00     0.231 HD
ENDBRANCH  94  97
BRANCH  94  99
ATOM     99  O3S SGN d 503     -22.533  54.433 169.386  0.00  0.00    -0.296 OA
ATOM    100  H   SGN d 503     -22.616  54.394 168.421  0.00  0.00     0.231 HD
ENDBRANCH  94  99
ENDBRANCH  92  94
ENDBRANCH  65  92
BRANCH  66 101
ATOM    101  O3  SGN d 503     -19.377  51.865 172.033  0.00  0.00    -0.391 OA
ATOM    102  H   SGN d 503     -20.217  51.487 171.731  0.00  0.00     0.210 HD
ENDBRANCH  66 101
ENDBRANCH  60  61
ENDBRANCH   3  60
TORSDOF 40
ENDMDL
MODEL 30
REMARK VINA RESULT:      -3.1      3.151     12.600
REMARK WARNING: 32 MAX_TORS EXCEEDED!!!
REMARK  40 active torsions:
REMARK  status: ('A' for Active; 'I' for Inactive)
REMARK    1 I    between atoms: C6_1  and  C5_8 
REMARK    2 I    between atoms: C6_1  and  O6_57 
REMARK    3 I    between atoms: O4_2  and  C4_49 
REMARK    4 I    between atoms: O6_3  and  C6_7 
REMARK    5 I    between atoms: O6_3  and  S2_58 
REMARK    6 I    between atoms: S_4  and  O2_6 
REMARK    7 I    between atoms: O3_5  and  C3_81 
REMARK    8 I    between atoms: O2_6  and  C2_11 
REMARK    9 I    between atoms: C6_7  and  C5_54 
REMARK   10 I    between atoms: O4_9  and  C4_32 
REMARK   11 I    between atoms: O4_9  and  C1_39 
REMARK   12 I    between atoms: O3_12  and  C3_18 
REMARK   13 I    between atoms: N_13  and  C2_52 
REMARK   14 I    between atoms: N_13  and  S1_45 
REMARK   15 I    between atoms: O3_17  and  C3_83 
REMARK   16 I    between atoms: C4_20  and  O4_44 
REMARK   17 I    between atoms: N_21  and  C2_66 
REMARK   18 I    between atoms: N_21  and  S1_53 
REMARK   19 I    between atoms: O3_22  and  C3_65 
REMARK   20 I    between atoms: C4_23  and  O4_74 
REMARK   21 I    between atoms: C1_25  and  O1_72 
REMARK   22 I    between atoms: C2_28  and  O2_69 
REMARK   23 I    between atoms: C4_33  and  O4_61 
REMARK   24 I    between atoms: O2S_34  and  S1_45 
REMARK   25 I    between atoms: C6_37  and  C5_47 
REMARK   26 I    between atoms: O2_38  and  C2_77 
REMARK   27 I    between atoms: O2_38  and  S_50 
REMARK   28 I    between atoms: O3S_40  and  S1_53 
REMARK   29 I    between atoms: O1S_42  and  S1_45 
REMARK   30 I    between atoms: O1S_43  and  S1_53 
REMARK   31 I    between atoms: O4_44  and  C1_46 
REMARK   32 I    between atoms: S1_45  and  O3S_60 
REMARK   33 I    between atoms: C6_48  and  C5_84 
REMARK   34 I    between atoms: C6_51  and  C5_87 
REMARK   35 I    between atoms: S1_53  and  O2S_55 
REMARK   36 I    between atoms: C1_56  and  O4_74 
REMARK   37 I    between atoms: O6_57  and  S2_82 
REMARK   38 I    between atoms: O4_61  and  C1_70 
REMARK   39 I    between atoms: C3_63  and  O3_79 
REMARK   40 I    between atoms: O2_69  and  S_76 
ROOT
ATOM      1  C3  IDS d 504     -18.300  48.952 175.155  0.00  0.00     0.185 C 
ATOM      2  C4  IDS d 504     -17.716  50.309 174.793  0.00  0.00     0.195 C 
ATOM      3  C1  IDS d 504     -17.945  48.283 172.698  0.00  0.00     0.294 C 
ATOM      4  O5  IDS d 504     -17.445  49.610 172.505  0.00  0.00    -0.340 OA
ATOM      5  C2  IDS d 504     -18.878  48.209 173.890  0.00  0.00     0.231 C 
ATOM      6  C5  IDS d 504     -16.757  50.138 173.617  0.00  0.00     0.257 C 
ENDROOT
BRANCH   2   7
ATOM      7  O4  IDS d 504     -18.769  51.195 174.440  0.00  0.00    -0.348 OA
BRANCH   7   8
ATOM      8  C1  SGN d 505     -19.537  51.625 175.531  0.00  0.00     0.282 C 
ATOM      9  O5  SGN d 505     -18.840  52.586 176.271  0.00  0.00    -0.349 OA
ATOM     10  C5  SGN d 505     -18.590  53.764 175.568  0.00  0.00     0.181 C 
ATOM     11  C4  SGN d 505     -19.874  54.454 175.237  0.00  0.00     0.186 C 
ATOM     12  C3  SGN d 505     -20.659  53.503 174.288  0.00  0.00     0.173 C 
ATOM     13  C2  SGN d 505     -20.867  52.200 175.083  0.00  0.00     0.157 C 
BRANCH  10  14
ATOM     14  C6  SGN d 505     -17.696  54.589 176.435  0.00  0.00     0.227 C 
BRANCH  14  15
ATOM     15  O6  SGN d 505     -16.523  54.736 175.711  0.00  0.00    -0.254 OA
BRANCH  15  16
ATOM     16  S2  SGN d 505     -15.115  54.908 176.262  0.00  0.00     0.251 S 
ATOM     17  O5S SGN d 505     -14.291  55.106 175.096  0.00  0.00    -0.572 OA
ATOM     18  O4S SGN d 505     -14.850  53.682 176.981  0.00  0.00    -0.572 OA
ATOM     19  O6S SGN d 505     -15.140  56.076 177.132  0.00  0.00    -0.572 OA
ENDBRANCH  15  16
ENDBRANCH  14  15
ENDBRANCH  10  14
BRANCH  11  20
ATOM     20  O4  SGN d 505     -19.509  55.701 174.684  0.00  0.00    -0.348 OA
BRANCH  20  21
ATOM     21  C1  IDS d 506     -20.289  56.843 174.785  0.00  0.00     0.294 C 
ATOM     22  C2  IDS d 506     -19.483  58.043 174.269  0.00  0.00     0.231 C 
ATOM     23  C3  IDS d 506     -20.114  59.414 174.641  0.00  0.00     0.185 C 
ATOM     24  C4  IDS d 506     -20.749  59.444 176.047  0.00  0.00     0.189 C 
ATOM     25  C5  IDS d 506     -21.450  58.117 176.354  0.00  0.00     0.256 C 
ATOM     26  O5  IDS d 506     -20.578  57.056 176.144  0.00  0.00    -0.340 OA
BRANCH  22  27
ATOM     27  O2  IDS d 506     -18.181  58.029 174.820  0.00  0.00    -0.244 OA
BRANCH  27  28
ATOM     28  S   IDS d 506     -16.938  58.939 174.432  0.00  0.00     0.252 S 
ATOM     29  O1S IDS d 506     -17.047  60.094 175.269  0.00  0.00    -0.572 OA
ATOM     30  O2S IDS d 506     -15.739  58.203 174.721  0.00  0.00    -0.572 OA
ATOM     31  O3S IDS d 506     -17.100  59.236 173.025  0.00  0.00    -0.572 OA
ENDBRANCH  27  28
ENDBRANCH  22  27
BRANCH  23  32
ATOM     32  O3  IDS d 506     -21.122  59.723 173.682  0.00  0.00    -0.390 OA
ATOM     33  H   IDS d 506     -21.076  59.089 172.948  0.00  0.00     0.210 HD
ENDBRANCH  23  32
BRANCH  24  34
ATOM     34  O4  IDS d 506     -19.708  59.657 176.972  0.00  0.00    -0.390 OA
ATOM     35  H   IDS d 506     -19.241  60.478 176.750  0.00  0.00     0.210 HD
ENDBRANCH  24  34
BRANCH  25  36
ATOM     36  C6  IDS d 506     -22.082  57.985 177.728  0.00  0.00     0.206 C 
ATOM     37  O62 IDS d 506     -22.309  58.954 178.431  0.00  0.00    -0.646 OA
ATOM     38  O61 IDS d 506     -22.394  56.881 178.154  0.00  0.00    -0.646 OA
ENDBRANCH  25  36
ENDBRANCH  20  21
ENDBRANCH  11  20
BRANCH  12  39
ATOM     39  O3  SGN d 505     -21.933  54.049 173.975  0.00  0.00    -0.391 OA
ATOM     40  H   SGN d 505     -22.612  53.617 174.517  0.00  0.00     0.210 HD
ENDBRANCH  12  39
BRANCH  13  41
ATOM     41  N   SGN d 505     -21.645  51.149 174.387  0.00  0.00    -0.210 NA
ATOM     42  H   SGN d 505     -21.129  50.274 174.479  0.00  0.00     0.140 HD
BRANCH  41  43
ATOM     43  S1  SGN d 505     -23.210  50.866 174.916  0.00  0.00     0.156 S 
BRANCH  43  44
ATOM     44  O3S SGN d 505     -23.132  49.867 175.922  0.00  0.00    -0.296 OA
ATOM     45  H   SGN d 505     -22.288  49.395 175.844  0.00  0.00     0.231 HD
ENDBRANCH  43  44
BRANCH  43  46
ATOM     46  O1S SGN d 505     -23.741  52.121 175.404  0.00  0.00    -0.296 OA
ATOM     47  H   SGN d 505     -24.676  52.009 175.631  0.00  0.00     0.231 HD
ENDBRANCH  43  46
BRANCH  43  48
ATOM     48  O2S SGN d 505     -23.915  50.385 173.751  0.00  0.00    -0.296 OA
ATOM     49  H   SGN d 505     -23.300  50.323 173.003  0.00  0.00     0.231 HD
ENDBRANCH  43  48
ENDBRANCH  41  43
ENDBRANCH  13  41
ENDBRANCH   7   8
ENDBRANCH   2   7
BRANCH   1  50
ATOM     50  O3  IDS d 504     -17.248  48.182 175.722  0.00  0.00    -0.390 OA
ATOM     51  H   IDS d 504     -16.911  47.559 175.059  0.00  0.00     0.210 HD
ENDBRANCH   1  50
BRANCH   6  52
ATOM     52  C6  IDS d 504     -15.981  51.404 173.217  0.00  0.00     0.206 C 
ATOM     53  O62 IDS d 504     -15.727  52.283 174.044  0.00  0.00    -0.646 OA
ATOM     54  O61 IDS d 504     -15.613  51.579 172.063  0.00  0.00    -0.646 OA
ENDBRANCH   6  52
BRANCH   5  55
ATOM     55  O2  IDS d 504     -20.134  48.770 173.512  0.00  0.00    -0.244 OA
BRANCH  55  56
ATOM     56  S   IDS d 504     -21.382  48.000 173.043  0.00  0.00     0.252 S 
ATOM     57  O2S IDS d 504     -22.071  48.826 172.095  0.00  0.00    -0.572 OA
ATOM     58  O3S IDS d 504     -20.853  46.799 172.512  0.00  0.00    -0.572 OA
ATOM     59  O1S IDS d 504     -22.166  47.767 174.200  0.00  0.00    -0.572 OA
ENDBRANCH  55  56
ENDBRANCH   5  55
BRANCH   3  60
ATOM     60  O4  SGN d 503     -16.923  47.347 172.881  0.00  0.00    -0.348 OA
BRANCH  60  61
ATOM     61  C4  SGN d 503     -16.524  46.708 171.712  0.00  0.00     0.186 C 
ATOM     62  C5  SGN d 503     -16.348  45.208 172.005  0.00  0.00     0.181 C 
ATOM     63  O5  SGN d 503     -15.847  44.536 170.892  0.00  0.00    -0.349 OA
ATOM     64  C1  SGN d 503     -14.577  44.988 170.493  0.00  0.00     0.282 C 
ATOM     65  C2  SGN d 503     -14.657  46.474 170.114  0.00  0.00     0.157 C 
ATOM     66  C3  SGN d 503     -15.199  47.314 171.257  0.00  0.00     0.173 C 
BRANCH  62  67
ATOM     67  C6  SGN d 503     -17.625  44.485 172.340  0.00  0.00     0.227 C 
BRANCH  67  68
ATOM     68  O6  SGN d 503     -17.430  43.826 173.572  0.00  0.00    -0.254 OA
BRANCH  68  69
ATOM     69  S2  SGN d 503     -17.927  44.329 174.954  0.00  0.00     0.251 S 
ATOM     70  O6S SGN d 503     -19.203  44.863 174.678  0.00  0.00    -0.572 OA
ATOM     71  O4S SGN d 503     -18.043  43.208 175.822  0.00  0.00    -0.572 OA
ATOM     72  O5S SGN d 503     -16.943  45.294 175.436  0.00  0.00    -0.572 OA
ENDBRANCH  68  69
ENDBRANCH  67  68
ENDBRANCH  62  67
BRANCH  64  73
ATOM     73  O4  IDS d 502     -13.619  44.776 171.494  0.00  0.00    -0.348 OA
BRANCH  73  74
ATOM     74  C4  IDS d 502     -12.956  43.540 171.423  0.00  0.00     0.195 C 
ATOM     75  C3  IDS d 502     -11.615  43.715 170.686  0.00  0.00     0.185 C 
ATOM     76  C2  IDS d 502     -10.623  44.516 171.535  0.00  0.00     0.231 C 
ATOM     77  C1  IDS d 502     -10.547  43.991 172.966  0.00  0.00     0.291 C 
ATOM     78  O5  IDS d 502     -11.826  43.870 173.535  0.00  0.00    -0.340 OA
ATOM     79  C5  IDS d 502     -12.708  43.015 172.835  0.00  0.00     0.257 C 
BRANCH  75  80
ATOM     80  O3  IDS d 502     -11.054  42.439 170.444  0.00  0.00    -0.390 OA
ATOM     81  H   IDS d 502     -11.427  42.073 169.627  0.00  0.00     0.210 HD
ENDBRANCH  75  80
BRANCH  76  82
ATOM     82  O2  IDS d 502     -11.087  45.838 171.581  0.00  0.00    -0.244 OA
BRANCH  82  83
ATOM     83  S   IDS d 502     -10.348  47.130 171.099  0.00  0.00     0.252 S 
ATOM     84  O3S IDS d 502      -9.098  47.126 171.813  0.00  0.00    -0.572 OA
ATOM     85  O2S IDS d 502     -11.214  48.233 171.446  0.00  0.00    -0.572 OA
ATOM     86  O1S IDS d 502     -10.160  47.008 169.680  0.00  0.00    -0.572 OA
ENDBRANCH  82  83
ENDBRANCH  76  82
BRANCH  77  87
ATOM     87  O1  IDS d 502      -9.849  42.774 172.943  0.00  0.00    -0.368 OA
ATOM     88  H   IDS d 502     -10.411  42.073 173.308  0.00  0.00     0.212 HD
ENDBRANCH  77  87
BRANCH  79  89
ATOM     89  C6  IDS d 502     -13.975  42.771 173.642  0.00  0.00     0.206 C 
ATOM     90  O61 IDS d 502     -14.776  41.930 173.312  0.00  0.00    -0.646 OA
ATOM     91  O62 IDS d 502     -14.212  43.414 174.646  0.00  0.00    -0.646 OA
ENDBRANCH  79  89
ENDBRANCH  73  74
ENDBRANCH  64  73
BRANCH  65  92
ATOM     92  N   SGN d 503     -13.360  46.956 169.671  0.00  0.00    -0.210 NA
ATOM     93  H   SGN d 503     -12.859  46.162 169.274  0.00  0.00     0.140 HD
BRANCH  92  94
ATOM     94  S1  SGN d 503     -13.339  48.149 168.565  0.00  0.00     0.156 S 
BRANCH  94  95
ATOM     95  O2S SGN d 503     -14.612  48.128 167.845  0.00  0.00    -0.296 OA
ATOM     96  H   SGN d 503     -14.488  47.698 166.984  0.00  0.00     0.231 HD
ENDBRANCH  94  95
BRANCH  94  97
ATOM     97  O1S SGN d 503     -12.215  47.870 167.691  0.00  0.00    -0.296 OA
ATOM     98  H   SGN d 503     -12.520  47.361 166.924  0.00  0.00     0.231 HD
ENDBRANCH  94  97
BRANCH  94  99
ATOM     99  O3S SGN d 503     -13.138  49.337 169.363  0.00  0.00    -0.296 OA
ATOM    100  H   SGN d 503     -12.221  49.638 169.269  0.00  0.00     0.231 HD
ENDBRANCH  94  99
ENDBRANCH  92  94
ENDBRANCH  65  92
BRANCH  66 101
ATOM    101  O3  SGN d 503     -15.448  48.632 170.809  0.00  0.00    -0.391 OA
ATOM    102  H   SGN d 503     -14.664  49.181 170.968  0.00  0.00     0.210 HD
ENDBRANCH  66 101
ENDBRANCH  60  61
ENDBRANCH   3  60
TORSDOF 40
ENDMDL
MODEL 31
REMARK VINA RESULT:      -3.1      4.341      7.669
REMARK WARNING: 32 MAX_TORS EXCEEDED!!!
REMARK  40 active torsions:
REMARK  status: ('A' for Active; 'I' for Inactive)
REMARK    1 I    between atoms: C6_1  and  C5_8 
REMARK    2 I    between atoms: C6_1  and  O6_57 
REMARK    3 I    between atoms: O4_2  and  C4_49 
REMARK    4 I    between atoms: O6_3  and  C6_7 
REMARK    5 I    between atoms: O6_3  and  S2_58 
REMARK    6 I    between atoms: S_4  and  O2_6 
REMARK    7 I    between atoms: O3_5  and  C3_81 
REMARK    8 I    between atoms: O2_6  and  C2_11 
REMARK    9 I    between atoms: C6_7  and  C5_54 
REMARK   10 I    between atoms: O4_9  and  C4_32 
REMARK   11 I    between atoms: O4_9  and  C1_39 
REMARK   12 I    between atoms: O3_12  and  C3_18 
REMARK   13 I    between atoms: N_13  and  C2_52 
REMARK   14 I    between atoms: N_13  and  S1_45 
REMARK   15 I    between atoms: O3_17  and  C3_83 
REMARK   16 I    between atoms: C4_20  and  O4_44 
REMARK   17 I    between atoms: N_21  and  C2_66 
REMARK   18 I    between atoms: N_21  and  S1_53 
REMARK   19 I    between atoms: O3_22  and  C3_65 
REMARK   20 I    between atoms: C4_23  and  O4_74 
REMARK   21 I    between atoms: C1_25  and  O1_72 
REMARK   22 I    between atoms: C2_28  and  O2_69 
REMARK   23 I    between atoms: C4_33  and  O4_61 
REMARK   24 I    between atoms: O2S_34  and  S1_45 
REMARK   25 I    between atoms: C6_37  and  C5_47 
REMARK   26 I    between atoms: O2_38  and  C2_77 
REMARK   27 I    between atoms: O2_38  and  S_50 
REMARK   28 I    between atoms: O3S_40  and  S1_53 
REMARK   29 I    between atoms: O1S_42  and  S1_45 
REMARK   30 I    between atoms: O1S_43  and  S1_53 
REMARK   31 I    between atoms: O4_44  and  C1_46 
REMARK   32 I    between atoms: S1_45  and  O3S_60 
REMARK   33 I    between atoms: C6_48  and  C5_84 
REMARK   34 I    between atoms: C6_51  and  C5_87 
REMARK   35 I    between atoms: S1_53  and  O2S_55 
REMARK   36 I    between atoms: C1_56  and  O4_74 
REMARK   37 I    between atoms: O6_57  and  S2_82 
REMARK   38 I    between atoms: O4_61  and  C1_70 
REMARK   39 I    between atoms: C3_63  and  O3_79 
REMARK   40 I    between atoms: O2_69  and  S_76 
ROOT
ATOM      1  C3  IDS d 504     -13.968  44.819 173.334  0.00  0.00     0.185 C 
ATOM      2  C4  IDS d 504     -13.397  46.058 172.663  0.00  0.00     0.195 C 
ATOM      3  C1  IDS d 504     -14.817  46.373 175.199  0.00  0.00     0.294 C 
ATOM      4  O5  IDS d 504     -14.202  47.436 174.465  0.00  0.00    -0.340 OA
ATOM      5  C2  IDS d 504     -14.176  45.036 174.883  0.00  0.00     0.231 C 
ATOM      6  C5  IDS d 504     -14.235  47.271 173.066  0.00  0.00     0.257 C 
ENDROOT
BRANCH   2   7
ATOM      7  O4  IDS d 504     -12.050  46.236 173.074  0.00  0.00    -0.348 OA
BRANCH   7   8
ATOM      8  C1  SGN d 505     -11.112  45.651 172.212  0.00  0.00     0.282 C 
ATOM      9  O5  SGN d 505     -10.815  46.516 171.153  0.00  0.00    -0.349 OA
ATOM     10  C5  SGN d 505     -10.192  47.699 171.552  0.00  0.00     0.181 C 
ATOM     11  C4  SGN d 505      -8.850  47.407 172.141  0.00  0.00     0.186 C 
ATOM     12  C3  SGN d 505      -9.101  46.558 173.421  0.00  0.00     0.173 C 
ATOM     13  C2  SGN d 505      -9.834  45.289 172.943  0.00  0.00     0.157 C 
BRANCH  10  14
ATOM     14  C6  SGN d 505     -10.116  48.563 170.336  0.00  0.00     0.227 C 
BRANCH  14  15
ATOM     15  O6  SGN d 505      -9.811  47.700 169.295  0.00  0.00    -0.254 OA
BRANCH  15  16
ATOM     16  S2  SGN d 505      -9.294  48.070 167.912  0.00  0.00     0.251 S 
ATOM     17  O5S SGN d 505      -8.614  46.885 167.451  0.00  0.00    -0.572 OA
ATOM     18  O4S SGN d 505      -8.432  49.208 168.135  0.00  0.00    -0.572 OA
ATOM     19  O6S SGN d 505     -10.458  48.396 167.099  0.00  0.00    -0.572 OA
ENDBRANCH  15  16
ENDBRANCH  14  15
ENDBRANCH  10  14
BRANCH  11  20
ATOM     20  O4  SGN d 505      -8.241  48.663 172.353  0.00  0.00    -0.348 OA
BRANCH  20  21
ATOM     21  C1  IDS d 506      -6.888  48.901 172.164  0.00  0.00     0.294 C 
ATOM     22  C2  IDS d 506      -6.549  50.297 172.706  0.00  0.00     0.231 C 
ATOM     23  C3  IDS d 506      -5.154  50.811 172.253  0.00  0.00     0.185 C 
ATOM     24  C4  IDS d 506      -4.791  50.424 170.803  0.00  0.00     0.189 C 
ATOM     25  C5  IDS d 506      -5.279  49.008 170.481  0.00  0.00     0.256 C 
ATOM     26  O5  IDS d 506      -6.630  48.888 170.783  0.00  0.00    -0.340 OA
BRANCH  22  27
ATOM     27  O2  IDS d 506      -7.500  51.240 172.252  0.00  0.00    -0.244 OA
BRANCH  27  28
ATOM     28  S   IDS d 506      -8.430  52.195 173.117  0.00  0.00     0.252 S 
ATOM     29  O1S IDS d 506      -7.829  52.223 174.415  0.00  0.00    -0.572 OA
ATOM     30  O2S IDS d 506      -8.415  53.498 172.514  0.00  0.00    -0.572 OA
ATOM     31  O3S IDS d 506      -9.737  51.575 173.107  0.00  0.00    -0.572 OA
ENDBRANCH  27  28
ENDBRANCH  22  27
BRANCH  23  32
ATOM     32  O3  IDS d 506      -4.167  50.270 173.127  0.00  0.00    -0.390 OA
ATOM     33  H   IDS d 506      -3.904  50.944 173.775  0.00  0.00     0.210 HD
ENDBRANCH  23  32
BRANCH  24  34
ATOM     34  O4  IDS d 506      -5.425  51.351 169.952  0.00  0.00    -0.390 OA
ATOM     35  H   IDS d 506      -6.180  51.749 170.413  0.00  0.00     0.210 HD
ENDBRANCH  24  34
BRANCH  25  36
ATOM     36  C6  IDS d 506      -5.033  48.510 169.069  0.00  0.00     0.206 C 
ATOM     37  O62 IDS d 506      -4.361  49.139 168.270  0.00  0.00    -0.646 OA
ATOM     38  O61 IDS d 506      -5.501  47.439 168.708  0.00  0.00    -0.646 OA
ENDBRANCH  25  36
ENDBRANCH  20  21
ENDBRANCH  11  20
BRANCH  12  39
ATOM     39  O3  SGN d 505      -7.867  46.170 174.012  0.00  0.00    -0.391 OA
ATOM     40  H   SGN d 505      -7.870  45.212 174.169  0.00  0.00     0.210 HD
ENDBRANCH  12  39
BRANCH  13  41
ATOM     41  N   SGN d 505     -10.138  44.296 173.999  0.00  0.00    -0.210 NA
ATOM     42  H   SGN d 505     -11.131  44.074 173.933  0.00  0.00     0.140 HD
BRANCH  41  43
ATOM     43  S1  SGN d 505      -9.297  42.847 173.963  0.00  0.00     0.156 S 
BRANCH  43  44
ATOM     44  O3S SGN d 505      -9.820  42.091 172.881  0.00  0.00    -0.296 OA
ATOM     45  H   SGN d 505     -10.362  42.665 172.319  0.00  0.00     0.231 HD
ENDBRANCH  43  44
BRANCH  43  46
ATOM     46  O1S SGN d 505      -7.892  43.160 173.808  0.00  0.00    -0.296 OA
ATOM     47  H   SGN d 505      -7.730  43.479 172.907  0.00  0.00     0.231 HD
ENDBRANCH  43  46
BRANCH  43  48
ATOM     48  O2S SGN d 505      -9.584  42.219 175.232  0.00  0.00    -0.296 OA
ATOM     49  H   SGN d 505      -8.891  41.573 175.438  0.00  0.00     0.231 HD
ENDBRANCH  43  48
ENDBRANCH  41  43
ENDBRANCH  13  41
ENDBRANCH   7   8
ENDBRANCH   2   7
BRANCH   1  50
ATOM     50  O3  IDS d 504     -15.222  44.550 172.718  0.00  0.00    -0.390 OA
ATOM     51  H   IDS d 504     -15.750  43.978 173.298  0.00  0.00     0.210 HD
ENDBRANCH   1  50
BRANCH   6  52
ATOM     52  C6  IDS d 504     -13.862  48.585 172.360  0.00  0.00     0.206 C 
ATOM     53  O62 IDS d 504     -13.757  49.639 172.990  0.00  0.00    -0.646 OA
ATOM     54  O61 IDS d 504     -13.678  48.619 171.150  0.00  0.00    -0.646 OA
ENDBRANCH   6  52
BRANCH   5  55
ATOM     55  O2  IDS d 504     -12.927  44.965 175.568  0.00  0.00    -0.244 OA
BRANCH  55  56
ATOM     56  S   IDS d 504     -12.681  44.389 176.974  0.00  0.00     0.252 S 
ATOM     57  O2S IDS d 504     -13.718  43.436 177.240  0.00  0.00    -0.572 OA
ATOM     58  O3S IDS d 504     -11.379  43.842 176.887  0.00  0.00    -0.572 OA
ATOM     59  O1S IDS d 504     -12.736  45.485 177.871  0.00  0.00    -0.572 OA
ENDBRANCH  55  56
ENDBRANCH   5  55
BRANCH   3  60
ATOM     60  O4  SGN d 503     -16.189  46.272 174.948  0.00  0.00    -0.348 OA
BRANCH  60  61
ATOM     61  C4  SGN d 503     -16.986  46.893 175.903  0.00  0.00     0.186 C 
ATOM     62  C5  SGN d 503     -18.204  45.996 176.188  0.00  0.00     0.181 C 
ATOM     63  O5  SGN d 503     -19.092  46.620 177.062  0.00  0.00    -0.349 OA
ATOM     64  C1  SGN d 503     -19.623  47.819 176.556  0.00  0.00     0.282 C 
ATOM     65  C2  SGN d 503     -18.485  48.815 176.295  0.00  0.00     0.157 C 
ATOM     66  C3  SGN d 503     -17.444  48.241 175.351  0.00  0.00     0.173 C 
BRANCH  62  67
ATOM     67  C6  SGN d 503     -17.871  44.689 176.855  0.00  0.00     0.227 C 
BRANCH  67  68
ATOM     68  O6  SGN d 503     -18.996  43.847 176.726  0.00  0.00    -0.254 OA
BRANCH  68  69
ATOM     69  S2  SGN d 503     -19.753  43.165 177.896  0.00  0.00     0.251 S 
ATOM     70  O6S SGN d 503     -18.740  42.899 178.841  0.00  0.00    -0.572 OA
ATOM     71  O4S SGN d 503     -20.686  44.099 178.430  0.00  0.00    -0.572 OA
ATOM     72  O5S SGN d 503     -20.415  41.985 177.348  0.00  0.00    -0.572 OA
ENDBRANCH  68  69
ENDBRANCH  67  68
ENDBRANCH  62  67
BRANCH  64  73
ATOM     73  O4  IDS d 502     -20.371  47.597 175.392  0.00  0.00    -0.348 OA
BRANCH  73  74
ATOM     74  C4  IDS d 502     -21.606  46.960 175.598  0.00  0.00     0.195 C 
ATOM     75  C3  IDS d 502     -22.653  47.996 176.048  0.00  0.00     0.185 C 
ATOM     76  C2  IDS d 502     -23.016  48.944 174.901  0.00  0.00     0.231 C 
ATOM     77  C1  IDS d 502     -23.324  48.186 173.614  0.00  0.00     0.291 C 
ATOM     78  O5  IDS d 502     -22.304  47.269 173.303  0.00  0.00    -0.340 OA
ATOM     79  C5  IDS d 502     -22.059  46.296 174.299  0.00  0.00     0.257 C 
BRANCH  75  80
ATOM     80  O3  IDS d 502     -23.829  47.318 176.445  0.00  0.00    -0.390 OA
ATOM     81  H   IDS d 502     -24.353  47.893 177.024  0.00  0.00     0.210 HD
ENDBRANCH  75  80
BRANCH  76  82
ATOM     82  O2  IDS d 502     -21.900  49.762 174.668  0.00  0.00    -0.244 OA
BRANCH  82  83
ATOM     83  S   IDS d 502     -21.882  51.303 174.402  0.00  0.00     0.252 S 
ATOM     84  O3S IDS d 502     -21.804  51.901 175.710  0.00  0.00    -0.572 OA
ATOM     85  O2S IDS d 502     -23.109  51.596 173.699  0.00  0.00    -0.572 OA
ATOM     86  O1S IDS d 502     -20.718  51.584 173.609  0.00  0.00    -0.572 OA
ENDBRANCH  82  83
ENDBRANCH  76  82
BRANCH  77  87
ATOM     87  O1  IDS d 502     -24.575  47.570 173.764  0.00  0.00    -0.368 OA
ATOM     88  H   IDS d 502     -25.096  48.054 174.424  0.00  0.00     0.212 HD
ENDBRANCH  77  87
BRANCH  79  89
ATOM     89  C6  IDS d 502     -21.110  45.224 173.782  0.00  0.00     0.206 C 
ATOM     90  O61 IDS d 502     -21.107  44.112 174.249  0.00  0.00    -0.646 OA
ATOM     91  O62 IDS d 502     -20.331  45.460 172.879  0.00  0.00    -0.646 OA
ENDBRANCH  79  89
ENDBRANCH  73  74
ENDBRANCH  64  73
BRANCH  65  92
ATOM     92  N   SGN d 503     -19.014  50.073 175.797  0.00  0.00    -0.210 NA
ATOM     93  H   SGN d 503     -20.030  49.994 175.787  0.00  0.00     0.140 HD
BRANCH  92  94
ATOM     94  S1  SGN d 503     -18.638  51.426 176.619  0.00  0.00     0.156 S 
BRANCH  94  95
ATOM     95  O2S SGN d 503     -17.319  51.242 177.224  0.00  0.00    -0.296 OA
ATOM     96  H   SGN d 503     -16.638  51.580 176.621  0.00  0.00     0.231 HD
ENDBRANCH  94  95
BRANCH  94  97
ATOM     97  O1S SGN d 503     -19.676  51.593 177.619  0.00  0.00    -0.296 OA
ATOM     98  H   SGN d 503     -20.256  52.327 177.362  0.00  0.00     0.231 HD
ENDBRANCH  94  97
BRANCH  94  99
ATOM     99  O3S SGN d 503     -18.677  52.453 175.603  0.00  0.00    -0.296 OA
ATOM    100  H   SGN d 503     -19.549  52.453 175.178  0.00  0.00     0.231 HD
ENDBRANCH  94  99
ENDBRANCH  92  94
ENDBRANCH  65  92
BRANCH  66 101
ATOM    101  O3  SGN d 503     -16.319  49.098 175.295  0.00  0.00    -0.391 OA
ATOM    102  H   SGN d 503     -16.420  49.715 174.553  0.00  0.00     0.210 HD
ENDBRANCH  66 101
ENDBRANCH  60  61
ENDBRANCH   3  60
TORSDOF 40
ENDMDL
MODEL 32
REMARK VINA RESULT:      -3.1      2.538     12.161
REMARK WARNING: 32 MAX_TORS EXCEEDED!!!
REMARK  40 active torsions:
REMARK  status: ('A' for Active; 'I' for Inactive)
REMARK    1 I    between atoms: C6_1  and  C5_8 
REMARK    2 I    between atoms: C6_1  and  O6_57 
REMARK    3 I    between atoms: O4_2  and  C4_49 
REMARK    4 I    between atoms: O6_3  and  C6_7 
REMARK    5 I    between atoms: O6_3  and  S2_58 
REMARK    6 I    between atoms: S_4  and  O2_6 
REMARK    7 I    between atoms: O3_5  and  C3_81 
REMARK    8 I    between atoms: O2_6  and  C2_11 
REMARK    9 I    between atoms: C6_7  and  C5_54 
REMARK   10 I    between atoms: O4_9  and  C4_32 
REMARK   11 I    between atoms: O4_9  and  C1_39 
REMARK   12 I    between atoms: O3_12  and  C3_18 
REMARK   13 I    between atoms: N_13  and  C2_52 
REMARK   14 I    between atoms: N_13  and  S1_45 
REMARK   15 I    between atoms: O3_17  and  C3_83 
REMARK   16 I    between atoms: C4_20  and  O4_44 
REMARK   17 I    between atoms: N_21  and  C2_66 
REMARK   18 I    between atoms: N_21  and  S1_53 
REMARK   19 I    between atoms: O3_22  and  C3_65 
REMARK   20 I    between atoms: C4_23  and  O4_74 
REMARK   21 I    between atoms: C1_25  and  O1_72 
REMARK   22 I    between atoms: C2_28  and  O2_69 
REMARK   23 I    between atoms: C4_33  and  O4_61 
REMARK   24 I    between atoms: O2S_34  and  S1_45 
REMARK   25 I    between atoms: C6_37  and  C5_47 
REMARK   26 I    between atoms: O2_38  and  C2_77 
REMARK   27 I    between atoms: O2_38  and  S_50 
REMARK   28 I    between atoms: O3S_40  and  S1_53 
REMARK   29 I    between atoms: O1S_42  and  S1_45 
REMARK   30 I    between atoms: O1S_43  and  S1_53 
REMARK   31 I    between atoms: O4_44  and  C1_46 
REMARK   32 I    between atoms: S1_45  and  O3S_60 
REMARK   33 I    between atoms: C6_48  and  C5_84 
REMARK   34 I    between atoms: C6_51  and  C5_87 
REMARK   35 I    between atoms: S1_53  and  O2S_55 
REMARK   36 I    between atoms: C1_56  and  O4_74 
REMARK   37 I    between atoms: O6_57  and  S2_82 
REMARK   38 I    between atoms: O4_61  and  C1_70 
REMARK   39 I    between atoms: C3_63  and  O3_79 
REMARK   40 I    between atoms: O2_69  and  S_76 
ROOT
ATOM      1  C3  IDS d 504     -16.627  51.141 175.502  0.00  0.00     0.185 C 
ATOM      2  C4  IDS d 504     -16.576  52.151 174.366  0.00  0.00     0.195 C 
ATOM      3  C1  IDS d 504     -15.727  49.405 173.832  0.00  0.00     0.294 C 
ATOM      4  O5  IDS d 504     -15.764  50.457 172.861  0.00  0.00    -0.340 OA
ATOM      5  C2  IDS d 504     -16.702  49.660 174.964  0.00  0.00     0.231 C 
ATOM      6  C5  IDS d 504     -15.484  51.737 173.382  0.00  0.00     0.257 C 
ENDROOT
BRANCH   2   7
ATOM      7  O4  IDS d 504     -17.836  52.186 173.712  0.00  0.00    -0.348 OA
BRANCH   7   8
ATOM      8  C1  SGN d 505     -18.699  53.180 174.195  0.00  0.00     0.282 C 
ATOM      9  O5  SGN d 505     -18.214  54.450 173.863  0.00  0.00    -0.349 OA
ATOM     10  C5  SGN d 505     -18.175  54.696 172.491  0.00  0.00     0.181 C 
ATOM     11  C4  SGN d 505     -19.557  54.700 171.924  0.00  0.00     0.186 C 
ATOM     12  C3  SGN d 505     -20.124  53.264 172.123  0.00  0.00     0.173 C 
ATOM     13  C2  SGN d 505     -20.102  53.015 173.644  0.00  0.00     0.157 C 
BRANCH  10  14
ATOM     14  C6  SGN d 505     -17.474  56.004 172.320  0.00  0.00     0.227 C 
BRANCH  14  15
ATOM     15  O6  SGN d 505     -16.990  56.325 173.579  0.00  0.00    -0.254 OA
BRANCH  15  16
ATOM     16  S2  SGN d 505     -16.951  57.700 174.229  0.00  0.00     0.251 S 
ATOM     17  O5S SGN d 505     -16.423  57.462 175.549  0.00  0.00    -0.572 OA
ATOM     18  O4S SGN d 505     -18.323  58.156 174.205  0.00  0.00    -0.572 OA
ATOM     19  O6S SGN d 505     -16.069  58.528 173.417  0.00  0.00    -0.572 OA
ENDBRANCH  15  16
ENDBRANCH  14  15
ENDBRANCH  10  14
BRANCH  11  20
ATOM     20  O4  SGN d 505     -19.421  55.120 170.582  0.00  0.00    -0.348 OA
BRANCH  20  21
ATOM     21  C1  IDS d 506     -20.402  55.818 169.894  0.00  0.00     0.294 C 
ATOM     22  C2  IDS d 506     -19.943  56.020 168.443  0.00  0.00     0.231 C 
ATOM     23  C3  IDS d 506     -20.791  57.068 167.670  0.00  0.00     0.185 C 
ATOM     24  C4  IDS d 506     -21.221  58.275 168.530  0.00  0.00     0.189 C 
ATOM     25  C5  IDS d 506     -21.581  57.828 169.951  0.00  0.00     0.256 C 
ATOM     26  O5  IDS d 506     -20.543  57.081 170.494  0.00  0.00    -0.340 OA
BRANCH  22  27
ATOM     27  O2  IDS d 506     -18.605  56.474 168.415  0.00  0.00    -0.244 OA
BRANCH  27  28
ATOM     28  S   IDS d 506     -17.690  56.764 167.149  0.00  0.00     0.252 S 
ATOM     29  O1S IDS d 506     -17.827  58.167 166.905  0.00  0.00    -0.572 OA
ATOM     30  O2S IDS d 506     -16.336  56.429 167.490  0.00  0.00    -0.572 OA
ATOM     31  O3S IDS d 506     -18.230  55.945 166.085  0.00  0.00    -0.572 OA
ENDBRANCH  27  28
ENDBRANCH  22  27
BRANCH  23  32
ATOM     32  O3  IDS d 506     -21.962  56.426 167.173  0.00  0.00    -0.390 OA
ATOM     33  H   IDS d 506     -21.945  56.428 166.202  0.00  0.00     0.210 HD
ENDBRANCH  23  32
BRANCH  24  34
ATOM     34  O4  IDS d 506     -20.132  59.167 168.574  0.00  0.00    -0.390 OA
ATOM     35  H   IDS d 506     -20.328  59.944 168.028  0.00  0.00     0.210 HD
ENDBRANCH  24  34
BRANCH  25  36
ATOM     36  C6  IDS d 506     -21.978  58.920 170.927  0.00  0.00     0.206 C 
ATOM     37  O62 IDS d 506     -21.301  59.921 171.087  0.00  0.00    -0.646 OA
ATOM     38  O61 IDS d 506     -23.014  58.819 171.569  0.00  0.00    -0.646 OA
ENDBRANCH  25  36
ENDBRANCH  20  21
ENDBRANCH  11  20
BRANCH  12  39
ATOM     39  O3  SGN d 505     -21.471  53.193 171.674  0.00  0.00    -0.391 OA
ATOM     40  H   SGN d 505     -21.495  52.818 170.779  0.00  0.00     0.210 HD
ENDBRANCH  12  39
BRANCH  13  41
ATOM     41  N   SGN d 505     -20.649  51.710 174.081  0.00  0.00    -0.210 NA
ATOM     42  H   SGN d 505     -19.864  51.067 174.181  0.00  0.00     0.140 HD
BRANCH  41  43
ATOM     43  S1  SGN d 505     -21.512  51.675 175.518  0.00  0.00     0.156 S 
BRANCH  43  44
ATOM     44  O3S SGN d 505     -20.592  51.334 176.544  0.00  0.00    -0.296 OA
ATOM     45  H   SGN d 505     -19.897  50.764 176.179  0.00  0.00     0.231 HD
ENDBRANCH  43  44
BRANCH  43  46
ATOM     46  O1S SGN d 505     -22.107  52.981 175.703  0.00  0.00    -0.296 OA
ATOM     47  H   SGN d 505     -21.697  53.418 176.465  0.00  0.00     0.231 HD
ENDBRANCH  43  46
BRANCH  43  48
ATOM     48  O2S SGN d 505     -22.501  50.639 175.333  0.00  0.00    -0.296 OA
ATOM     49  H   SGN d 505     -22.168  49.983 174.700  0.00  0.00     0.231 HD
ENDBRANCH  43  48
ENDBRANCH  41  43
ENDBRANCH  13  41
ENDBRANCH   7   8
ENDBRANCH   2   7
BRANCH   1  50
ATOM     50  O3  IDS d 504     -15.439  51.311 176.266  0.00  0.00    -0.390 OA
ATOM     51  H   IDS d 504     -14.689  50.925 175.787  0.00  0.00     0.210 HD
ENDBRANCH   1  50
BRANCH   6  52
ATOM     52  C6  IDS d 504     -15.219  52.734 172.242  0.00  0.00     0.206 C 
ATOM     53  O62 IDS d 504     -14.761  53.856 172.471  0.00  0.00    -0.646 OA
ATOM     54  O61 IDS d 504     -15.474  52.445 171.080  0.00  0.00    -0.646 OA
ENDBRANCH   6  52
BRANCH   5  55
ATOM     55  O2  IDS d 504     -18.017  49.365 174.498  0.00  0.00    -0.244 OA
BRANCH  55  56
ATOM     56  S   IDS d 504     -19.054  48.457 175.184  0.00  0.00     0.252 S 
ATOM     57  O2S IDS d 504     -19.045  48.768 176.583  0.00  0.00    -0.572 OA
ATOM     58  O3S IDS d 504     -20.261  48.763 174.513  0.00  0.00    -0.572 OA
ATOM     59  O1S IDS d 504     -18.638  47.123 174.943  0.00  0.00    -0.572 OA
ENDBRANCH  55  56
ENDBRANCH   5  55
BRANCH   3  60
ATOM     60  O4  SGN d 503     -14.453  49.226 174.380  0.00  0.00    -0.348 OA
BRANCH  60  61
ATOM     61  C4  SGN d 503     -13.727  48.193 173.799  0.00  0.00     0.186 C 
ATOM     62  C5  SGN d 503     -12.740  47.637 174.841  0.00  0.00     0.181 C 
ATOM     63  O5  SGN d 503     -11.912  46.668 174.279  0.00  0.00    -0.349 OA
ATOM     64  C1  SGN d 503     -11.111  47.157 173.232  0.00  0.00     0.282 C 
ATOM     65  C2  SGN d 503     -12.008  47.683 172.102  0.00  0.00     0.157 C 
ATOM     66  C3  SGN d 503     -12.966  48.751 172.599  0.00  0.00     0.173 C 
BRANCH  62  67
ATOM     67  C6  SGN d 503     -13.392  46.948 176.009  0.00  0.00     0.227 C 
BRANCH  67  68
ATOM     68  O6  SGN d 503     -13.014  47.643 177.178  0.00  0.00    -0.254 OA
BRANCH  68  69
ATOM     69  S2  SGN d 503     -13.964  48.476 178.079  0.00  0.00     0.251 S 
ATOM     70  O6S SGN d 503     -13.843  47.866 179.346  0.00  0.00    -0.572 OA
ATOM     71  O4S SGN d 503     -13.474  49.812 178.130  0.00  0.00    -0.572 OA
ATOM     72  O5S SGN d 503     -15.293  48.404 177.481  0.00  0.00    -0.572 OA
ENDBRANCH  68  69
ENDBRANCH  67  68
ENDBRANCH  62  67
BRANCH  64  73
ATOM     73  O4  IDS d 502     -10.234  48.154 173.680  0.00  0.00    -0.348 OA
BRANCH  73  74
ATOM     74  C4  IDS d 502      -9.247  47.710 174.576  0.00  0.00     0.195 C 
ATOM     75  C3  IDS d 502      -8.180  46.904 173.811  0.00  0.00     0.185 C 
ATOM     76  C2  IDS d 502      -7.347  47.817 172.907  0.00  0.00     0.231 C 
ATOM     77  C1  IDS d 502      -6.857  49.057 173.648  0.00  0.00     0.291 C 
ATOM     78  O5  IDS d 502      -7.912  49.709 174.309  0.00  0.00    -0.340 OA
ATOM     79  C5  IDS d 502      -8.599  48.915 175.255  0.00  0.00     0.257 C 
BRANCH  75  80
ATOM     80  O3  IDS d 502      -7.308  46.297 174.744  0.00  0.00    -0.390 OA
ATOM     81  H   IDS d 502      -6.551  46.881 174.906  0.00  0.00     0.210 HD
ENDBRANCH  75  80
BRANCH  76  82
ATOM     82  O2  IDS d 502      -8.179  48.237 171.859  0.00  0.00    -0.244 OA
BRANCH  82  83
ATOM     83  S   IDS d 502      -7.773  48.557 170.383  0.00  0.00     0.252 S 
ATOM     84  O3S IDS d 502      -8.634  49.642 169.991  0.00  0.00    -0.572 OA
ATOM     85  O2S IDS d 502      -7.997  47.338 169.640  0.00  0.00    -0.572 OA
ATOM     86  O1S IDS d 502      -6.389  48.942 170.395  0.00  0.00    -0.572 OA
ENDBRANCH  82  83
ENDBRANCH  76  82
BRANCH  77  87
ATOM     87  O1  IDS d 502      -5.835  48.661 174.523  0.00  0.00    -0.368 OA
ATOM     88  H   IDS d 502      -5.948  49.109 175.377  0.00  0.00     0.212 HD
ENDBRANCH  77  87
BRANCH  79  89
ATOM     89  C6  IDS d 502      -9.563  49.764 176.072  0.00  0.00     0.206 C 
ATOM     90  O61 IDS d 502     -10.400  49.257 176.779  0.00  0.00    -0.646 OA
ATOM     91  O62 IDS d 502      -9.511  50.978 176.038  0.00  0.00    -0.646 OA
ENDBRANCH  79  89
ENDBRANCH  73  74
ENDBRANCH  64  73
BRANCH  65  92
ATOM     92  N   SGN d 503     -11.202  48.168 170.997  0.00  0.00    -0.210 NA
ATOM     93  H   SGN d 503     -10.323  47.650 171.009  0.00  0.00     0.140 HD
BRANCH  92  94
ATOM     94  S1  SGN d 503     -11.822  48.038 169.498  0.00  0.00     0.156 S 
BRANCH  94  95
ATOM     95  O2S SGN d 503     -12.446  49.314 169.150  0.00  0.00    -0.296 OA
ATOM     96  H   SGN d 503     -11.964  49.718 168.411  0.00  0.00     0.231 HD
ENDBRANCH  94  95
BRANCH  94  97
ATOM     97  O1S SGN d 503     -12.787  46.957 169.552  0.00  0.00    -0.296 OA
ATOM     98  H   SGN d 503     -13.071  46.822 170.470  0.00  0.00     0.231 HD
ENDBRANCH  94  97
BRANCH  94  99
ATOM     99  O3S SGN d 503     -10.669  47.711 168.689  0.00  0.00    -0.296 OA
ATOM    100  H   SGN d 503     -10.165  47.003 169.118  0.00  0.00     0.231 HD
ENDBRANCH  94  99
ENDBRANCH  92  94
ENDBRANCH  65  92
BRANCH  66 101
ATOM    101  O3  SGN d 503     -13.905  49.063 171.588  0.00  0.00    -0.391 OA
ATOM    102  H   SGN d 503     -13.566  49.791 171.045  0.00  0.00     0.210 HD
ENDBRANCH  66 101
ENDBRANCH  60  61
ENDBRANCH   3  60
TORSDOF 40
ENDMDL
MODEL 33
REMARK VINA RESULT:      -3.1      2.827     12.567
REMARK WARNING: 32 MAX_TORS EXCEEDED!!!
REMARK  40 active torsions:
REMARK  status: ('A' for Active; 'I' for Inactive)
REMARK    1 I    between atoms: C6_1  and  C5_8 
REMARK    2 I    between atoms: C6_1  and  O6_57 
REMARK    3 I    between atoms: O4_2  and  C4_49 
REMARK    4 I    between atoms: O6_3  and  C6_7 
REMARK    5 I    between atoms: O6_3  and  S2_58 
REMARK    6 I    between atoms: S_4  and  O2_6 
REMARK    7 I    between atoms: O3_5  and  C3_81 
REMARK    8 I    between atoms: O2_6  and  C2_11 
REMARK    9 I    between atoms: C6_7  and  C5_54 
REMARK   10 I    between atoms: O4_9  and  C4_32 
REMARK   11 I    between atoms: O4_9  and  C1_39 
REMARK   12 I    between atoms: O3_12  and  C3_18 
REMARK   13 I    between atoms: N_13  and  C2_52 
REMARK   14 I    between atoms: N_13  and  S1_45 
REMARK   15 I    between atoms: O3_17  and  C3_83 
REMARK   16 I    between atoms: C4_20  and  O4_44 
REMARK   17 I    between atoms: N_21  and  C2_66 
REMARK   18 I    between atoms: N_21  and  S1_53 
REMARK   19 I    between atoms: O3_22  and  C3_65 
REMARK   20 I    between atoms: C4_23  and  O4_74 
REMARK   21 I    between atoms: C1_25  and  O1_72 
REMARK   22 I    between atoms: C2_28  and  O2_69 
REMARK   23 I    between atoms: C4_33  and  O4_61 
REMARK   24 I    between atoms: O2S_34  and  S1_45 
REMARK   25 I    between atoms: C6_37  and  C5_47 
REMARK   26 I    between atoms: O2_38  and  C2_77 
REMARK   27 I    between atoms: O2_38  and  S_50 
REMARK   28 I    between atoms: O3S_40  and  S1_53 
REMARK   29 I    between atoms: O1S_42  and  S1_45 
REMARK   30 I    between atoms: O1S_43  and  S1_53 
REMARK   31 I    between atoms: O4_44  and  C1_46 
REMARK   32 I    between atoms: S1_45  and  O3S_60 
REMARK   33 I    between atoms: C6_48  and  C5_84 
REMARK   34 I    between atoms: C6_51  and  C5_87 
REMARK   35 I    between atoms: S1_53  and  O2S_55 
REMARK   36 I    between atoms: C1_56  and  O4_74 
REMARK   37 I    between atoms: O6_57  and  S2_82 
REMARK   38 I    between atoms: O4_61  and  C1_70 
REMARK   39 I    between atoms: C3_63  and  O3_79 
REMARK   40 I    between atoms: O2_69  and  S_76 
ROOT
ATOM      1  C3  IDS d 504     -16.301  48.812 175.883  0.00  0.00     0.185 C 
ATOM      2  C4  IDS d 504     -16.681  50.005 175.020  0.00  0.00     0.195 C 
ATOM      3  C1  IDS d 504     -16.775  47.335 173.832  0.00  0.00     0.294 C 
ATOM      4  O5  IDS d 504     -17.130  48.547 173.158  0.00  0.00    -0.340 OA
ATOM      5  C2  IDS d 504     -16.925  47.471 175.334  0.00  0.00     0.231 C 
ATOM      6  C5  IDS d 504     -16.385  49.674 173.559  0.00  0.00     0.257 C 
ENDROOT
BRANCH   2   7
ATOM      7  O4  IDS d 504     -18.064  50.284 175.187  0.00  0.00    -0.348 OA
BRANCH   7   8
ATOM      8  C1  SGN d 505     -18.343  51.144 176.258  0.00  0.00     0.282 C 
ATOM      9  O5  SGN d 505     -17.687  52.369 176.085  0.00  0.00    -0.349 OA
ATOM     10  C5  SGN d 505     -18.124  53.087 174.972  0.00  0.00     0.181 C 
ATOM     11  C4  SGN d 505     -19.554  53.487 175.139  0.00  0.00     0.186 C 
ATOM     12  C3  SGN d 505     -20.381  52.169 175.196  0.00  0.00     0.173 C 
ATOM     13  C2  SGN d 505     -19.833  51.386 176.405  0.00  0.00     0.157 C 
BRANCH  10  14
ATOM     14  C6  SGN d 505     -17.206  54.258 174.842  0.00  0.00     0.227 C 
BRANCH  14  15
ATOM     15  O6  SGN d 505     -16.611  54.393 176.088  0.00  0.00    -0.254 OA
BRANCH  15  16
ATOM     16  S2  SGN d 505     -15.133  54.594 176.386  0.00  0.00     0.251 S 
ATOM     17  O5S SGN d 505     -15.079  55.827 177.132  0.00  0.00    -0.572 OA
ATOM     18  O4S SGN d 505     -14.500  54.652 175.087  0.00  0.00    -0.572 OA
ATOM     19  O6S SGN d 505     -14.699  53.447 177.172  0.00  0.00    -0.572 OA
ENDBRANCH  15  16
ENDBRANCH  14  15
ENDBRANCH  10  14
BRANCH  11  20
ATOM     20  O4  SGN d 505     -19.844  54.341 174.052  0.00  0.00    -0.348 OA
BRANCH  20  21
ATOM     21  C1  IDS d 506     -20.866  55.279 174.066  0.00  0.00     0.294 C 
ATOM     22  C2  IDS d 506     -20.752  56.155 172.810  0.00  0.00     0.231 C 
ATOM     23  C3  IDS d 506     -21.621  57.442 172.877  0.00  0.00     0.185 C 
ATOM     24  C4  IDS d 506     -21.670  58.086 174.279  0.00  0.00     0.189 C 
ATOM     25  C5  IDS d 506     -21.726  57.010 175.369  0.00  0.00     0.256 C 
ATOM     26  O5  IDS d 506     -20.692  56.098 175.194  0.00  0.00    -0.340 OA
BRANCH  22  27
ATOM     27  O2  IDS d 506     -19.414  56.574 172.628  0.00  0.00    -0.244 OA
BRANCH  27  28
ATOM     28  S   IDS d 506     -18.512  56.449 171.326  0.00  0.00     0.252 S 
ATOM     29  O1S IDS d 506     -19.053  55.338 170.604  0.00  0.00    -0.572 OA
ATOM     30  O2S IDS d 506     -18.642  57.665 170.574  0.00  0.00    -0.572 OA
ATOM     31  O3S IDS d 506     -17.168  56.215 171.806  0.00  0.00    -0.572 OA
ENDBRANCH  27  28
ENDBRANCH  22  27
BRANCH  23  32
ATOM     32  O3  IDS d 506     -22.950  57.111 172.484  0.00  0.00    -0.390 OA
ATOM     33  H   IDS d 506     -23.458  57.926 172.342  0.00  0.00     0.210 HD
ENDBRANCH  23  32
BRANCH  24  34
ATOM     34  O4  IDS d 506     -20.498  58.852 174.428  0.00  0.00    -0.390 OA
ATOM     35  H   IDS d 506     -20.716  59.700 174.845  0.00  0.00     0.210 HD
ENDBRANCH  24  34
BRANCH  25  36
ATOM     36  C6  IDS d 506     -21.730  57.498 176.805  0.00  0.00     0.206 C 
ATOM     37  O62 IDS d 506     -21.566  58.672 177.090  0.00  0.00    -0.646 OA
ATOM     38  O61 IDS d 506     -21.917  56.707 177.720  0.00  0.00    -0.646 OA
ENDBRANCH  25  36
ENDBRANCH  20  21
ENDBRANCH  11  20
BRANCH  12  39
ATOM     39  O3  SGN d 505     -21.755  52.452 175.427  0.00  0.00    -0.391 OA
ATOM     40  H   SGN d 505     -22.041  53.170 174.840  0.00  0.00     0.210 HD
ENDBRANCH  12  39
BRANCH  13  41
ATOM     41  N   SGN d 505     -20.512  50.100 176.688  0.00  0.00    -0.210 NA
ATOM     42  H   SGN d 505     -21.203  50.273 177.417  0.00  0.00     0.140 HD
BRANCH  41  43
ATOM     43  S1  SGN d 505     -21.301  49.346 175.417  0.00  0.00     0.156 S 
BRANCH  43  44
ATOM     44  O3S SGN d 505     -20.468  49.478 174.275  0.00  0.00    -0.296 OA
ATOM     45  H   SGN d 505     -20.902  49.069 173.509  0.00  0.00     0.231 HD
ENDBRANCH  43  44
BRANCH  43  46
ATOM     46  O1S SGN d 505     -21.526  47.967 175.797  0.00  0.00    -0.296 OA
ATOM     47  H   SGN d 505     -20.734  47.621 176.237  0.00  0.00     0.231 HD
ENDBRANCH  43  46
BRANCH  43  48
ATOM     48  O2S SGN d 505     -22.534  50.081 175.256  0.00  0.00    -0.296 OA
ATOM     49  H   SGN d 505     -22.559  50.814 175.891  0.00  0.00     0.231 HD
ENDBRANCH  43  48
ENDBRANCH  41  43
ENDBRANCH  13  41
ENDBRANCH   7   8
ENDBRANCH   2   7
BRANCH   1  50
ATOM     50  O3  IDS d 504     -14.882  48.720 175.867  0.00  0.00    -0.390 OA
ATOM     51  H   IDS d 504     -14.502  49.609 175.787  0.00  0.00     0.210 HD
ENDBRANCH   1  50
BRANCH   6  52
ATOM     52  C6  IDS d 504     -16.593  50.834 172.571  0.00  0.00     0.206 C 
ATOM     53  O62 IDS d 504     -17.723  51.176 172.218  0.00  0.00    -0.646 OA
ATOM     54  O61 IDS d 504     -15.638  51.436 172.097  0.00  0.00    -0.646 OA
ENDBRANCH   6  52
BRANCH   5  55
ATOM     55  O2  IDS d 504     -18.313  47.399 175.655  0.00  0.00    -0.244 OA
BRANCH  55  56
ATOM     56  S   IDS d 504     -18.981  46.413 176.630  0.00  0.00     0.252 S 
ATOM     57  O2S IDS d 504     -19.606  47.184 177.665  0.00  0.00    -0.572 OA
ATOM     58  O3S IDS d 504     -19.875  45.685 175.808  0.00  0.00    -0.572 OA
ATOM     59  O1S IDS d 504     -17.946  45.593 177.142  0.00  0.00    -0.572 OA
ENDBRANCH  55  56
ENDBRANCH   5  55
BRANCH   3  60
ATOM     60  O4  SGN d 503     -15.464  46.933 173.556  0.00  0.00    -0.348 OA
BRANCH  60  61
ATOM     61  C4  SGN d 503     -15.288  46.419 172.276  0.00  0.00     0.186 C 
ATOM     62  C5  SGN d 503     -15.004  44.911 172.385  0.00  0.00     0.181 C 
ATOM     63  O5  SGN d 503     -14.715  44.364 171.136  0.00  0.00    -0.349 OA
ATOM     64  C1  SGN d 503     -13.568  44.916 170.538  0.00  0.00     0.282 C 
ATOM     65  C2  SGN d 503     -13.775  46.423 170.326  0.00  0.00     0.157 C 
ATOM     66  C3  SGN d 503     -14.104  47.131 171.627  0.00  0.00     0.173 C 
BRANCH  62  67
ATOM     67  C6  SGN d 503     -16.161  44.095 172.896  0.00  0.00     0.227 C 
BRANCH  67  68
ATOM     68  O6  SGN d 503     -17.252  44.313 172.027  0.00  0.00    -0.254 OA
BRANCH  68  69
ATOM     69  S2  SGN d 503     -18.074  43.207 171.315  0.00  0.00     0.251 S 
ATOM     70  O6S SGN d 503     -18.115  43.632 169.971  0.00  0.00    -0.572 OA
ATOM     71  O4S SGN d 503     -17.358  41.981 171.419  0.00  0.00    -0.572 OA
ATOM     72  O5S SGN d 503     -19.370  43.141 171.983  0.00  0.00    -0.572 OA
ENDBRANCH  68  69
ENDBRANCH  67  68
ENDBRANCH  62  67
BRANCH  64  73
ATOM     73  O4  IDS d 502     -12.421  44.671 171.306  0.00  0.00    -0.348 OA
BRANCH  73  74
ATOM     74  C4  IDS d 502     -12.003  43.330 171.327  0.00  0.00     0.195 C 
ATOM     75  C3  IDS d 502     -11.037  43.072 170.154  0.00  0.00     0.185 C 
ATOM     76  C2  IDS d 502      -9.701  43.786 170.378  0.00  0.00     0.231 C 
ATOM     77  C1  IDS d 502      -9.148  43.535 171.777  0.00  0.00     0.291 C 
ATOM     78  O5  IDS d 502     -10.114  43.800 172.763  0.00  0.00    -0.340 OA
ATOM     79  C5  IDS d 502     -11.300  43.038 172.651  0.00  0.00     0.257 C 
BRANCH  75  80
ATOM     80  O3  IDS d 502     -10.783  41.684 170.066  0.00  0.00    -0.390 OA
ATOM     81  H   IDS d 502     -11.015  41.259 170.906  0.00  0.00     0.210 HD
ENDBRANCH  75  80
BRANCH  76  82
ATOM     82  O2  IDS d 502      -9.936  45.162 170.243  0.00  0.00    -0.244 OA
BRANCH  82  83
ATOM     83  S   IDS d 502      -8.895  46.285 169.921  0.00  0.00     0.252 S 
ATOM     84  O3S IDS d 502      -7.759  45.587 169.377  0.00  0.00    -0.572 OA
ATOM     85  O2S IDS d 502      -8.627  46.946 171.177  0.00  0.00    -0.572 OA
ATOM     86  O1S IDS d 502      -9.501  47.164 168.959  0.00  0.00    -0.572 OA
ENDBRANCH  82  83
ENDBRANCH  76  82
BRANCH  77  87
ATOM     87  O1  IDS d 502      -8.677  42.214 171.825  0.00  0.00    -0.368 OA
ATOM     88  H   IDS d 502      -7.750  42.212 172.110  0.00  0.00     0.212 HD
ENDBRANCH  77  87
BRANCH  79  89
ATOM     89  C6  IDS d 502     -12.180  43.227 173.879  0.00  0.00     0.206 C 
ATOM     90  O61 IDS d 502     -12.024  44.165 174.623  0.00  0.00    -0.646 OA
ATOM     91  O62 IDS d 502     -13.067  42.438 174.141  0.00  0.00    -0.646 OA
ENDBRANCH  79  89
ENDBRANCH  73  74
ENDBRANCH  64  73
BRANCH  65  92
ATOM     92  N   SGN d 503     -12.612  47.010 169.683  0.00  0.00    -0.210 NA
ATOM     93  H   SGN d 503     -12.086  46.250 169.251  0.00  0.00     0.140 HD
BRANCH  92  94
ATOM     94  S1  SGN d 503     -12.873  48.134 168.536  0.00  0.00     0.156 S 
BRANCH  94  95
ATOM     95  O2S SGN d 503     -14.100  47.782 167.822  0.00  0.00    -0.296 OA
ATOM     96  H   SGN d 503     -14.809  48.393 168.077  0.00  0.00     0.231 HD
ENDBRANCH  94  95
BRANCH  94  97
ATOM     97  O1S SGN d 503     -11.711  48.105 167.668  0.00  0.00    -0.296 OA
ATOM     98  H   SGN d 503     -10.975  48.567 168.099  0.00  0.00     0.231 HD
ENDBRANCH  94  97
BRANCH  94  99
ATOM     99  O3S SGN d 503     -12.969  49.362 169.292  0.00  0.00    -0.296 OA
ATOM    100  H   SGN d 503     -13.069  50.110 168.682  0.00  0.00     0.231 HD
ENDBRANCH  94  99
ENDBRANCH  92  94
ENDBRANCH  65  92
BRANCH  66 101
ATOM    101  O3  SGN d 503     -14.484  48.469 171.365  0.00  0.00    -0.391 OA
ATOM    102  H   SGN d 503     -14.207  49.034 172.102  0.00  0.00     0.210 HD
ENDBRANCH  66 101
ENDBRANCH  60  61
ENDBRANCH   3  60
TORSDOF 40
ENDMDL
MODEL 34
REMARK VINA RESULT:      -3.1      4.581     11.822
REMARK WARNING: 32 MAX_TORS EXCEEDED!!!
REMARK  40 active torsions:
REMARK  status: ('A' for Active; 'I' for Inactive)
REMARK    1 I    between atoms: C6_1  and  C5_8 
REMARK    2 I    between atoms: C6_1  and  O6_57 
REMARK    3 I    between atoms: O4_2  and  C4_49 
REMARK    4 I    between atoms: O6_3  and  C6_7 
REMARK    5 I    between atoms: O6_3  and  S2_58 
REMARK    6 I    between atoms: S_4  and  O2_6 
REMARK    7 I    between atoms: O3_5  and  C3_81 
REMARK    8 I    between atoms: O2_6  and  C2_11 
REMARK    9 I    between atoms: C6_7  and  C5_54 
REMARK   10 I    between atoms: O4_9  and  C4_32 
REMARK   11 I    between atoms: O4_9  and  C1_39 
REMARK   12 I    between atoms: O3_12  and  C3_18 
REMARK   13 I    between atoms: N_13  and  C2_52 
REMARK   14 I    between atoms: N_13  and  S1_45 
REMARK   15 I    between atoms: O3_17  and  C3_83 
REMARK   16 I    between atoms: C4_20  and  O4_44 
REMARK   17 I    between atoms: N_21  and  C2_66 
REMARK   18 I    between atoms: N_21  and  S1_53 
REMARK   19 I    between atoms: O3_22  and  C3_65 
REMARK   20 I    between atoms: C4_23  and  O4_74 
REMARK   21 I    between atoms: C1_25  and  O1_72 
REMARK   22 I    between atoms: C2_28  and  O2_69 
REMARK   23 I    between atoms: C4_33  and  O4_61 
REMARK   24 I    between atoms: O2S_34  and  S1_45 
REMARK   25 I    between atoms: C6_37  and  C5_47 
REMARK   26 I    between atoms: O2_38  and  C2_77 
REMARK   27 I    between atoms: O2_38  and  S_50 
REMARK   28 I    between atoms: O3S_40  and  S1_53 
REMARK   29 I    between atoms: O1S_42  and  S1_45 
REMARK   30 I    between atoms: O1S_43  and  S1_53 
REMARK   31 I    between atoms: O4_44  and  C1_46 
REMARK   32 I    between atoms: S1_45  and  O3S_60 
REMARK   33 I    between atoms: C6_48  and  C5_84 
REMARK   34 I    between atoms: C6_51  and  C5_87 
REMARK   35 I    between atoms: S1_53  and  O2S_55 
REMARK   36 I    between atoms: C1_56  and  O4_74 
REMARK   37 I    between atoms: O6_57  and  S2_82 
REMARK   38 I    between atoms: O4_61  and  C1_70 
REMARK   39 I    between atoms: C3_63  and  O3_79 
REMARK   40 I    between atoms: O2_69  and  S_76 
ROOT
ATOM      1  C3  IDS d 504     -15.910  50.507 172.816  0.00  0.00     0.185 C 
ATOM      2  C4  IDS d 504     -16.703  49.498 172.001  0.00  0.00     0.195 C 
ATOM      3  C1  IDS d 504     -14.333  48.575 173.441  0.00  0.00     0.294 C 
ATOM      4  O5  IDS d 504     -15.194  47.742 172.659  0.00  0.00    -0.340 OA
ATOM      5  C2  IDS d 504     -15.058  49.807 173.944  0.00  0.00     0.231 C 
ATOM      6  C5  IDS d 504     -15.765  48.384 171.541  0.00  0.00     0.257 C 
ENDROOT
BRANCH   2   7
ATOM      7  O4  IDS d 504     -17.744  48.960 172.803  0.00  0.00    -0.348 OA
BRANCH   7   8
ATOM      8  C1  SGN d 505     -18.955  49.660 172.705  0.00  0.00     0.282 C 
ATOM      9  O5  SGN d 505     -19.625  49.313 171.527  0.00  0.00    -0.349 OA
ATOM     10  C5  SGN d 505     -20.021  47.976 171.479  0.00  0.00     0.181 C 
ATOM     11  C4  SGN d 505     -21.031  47.694 172.543  0.00  0.00     0.186 C 
ATOM     12  C3  SGN d 505     -20.317  47.919 173.907  0.00  0.00     0.173 C 
ATOM     13  C2  SGN d 505     -19.853  49.389 173.896  0.00  0.00     0.157 C 
BRANCH  10  14
ATOM     14  C6  SGN d 505     -20.549  47.745 170.101  0.00  0.00     0.227 C 
BRANCH  14  15
ATOM     15  O6  SGN d 505     -21.540  48.699 169.927  0.00  0.00    -0.254 OA
BRANCH  15  16
ATOM     16  S2  SGN d 505     -22.055  49.264 168.611  0.00  0.00     0.251 S 
ATOM     17  O5S SGN d 505     -23.467  48.974 168.620  0.00  0.00    -0.572 OA
ATOM     18  O4S SGN d 505     -21.306  48.563 167.592  0.00  0.00    -0.572 OA
ATOM     19  O6S SGN d 505     -21.779  50.694 168.627  0.00  0.00    -0.572 OA
ENDBRANCH  15  16
ENDBRANCH  14  15
ENDBRANCH  10  14
BRANCH  11  20
ATOM     20  O4  SGN d 505     -21.485  46.378 172.303  0.00  0.00    -0.348 OA
BRANCH  20  21
ATOM     21  C1  IDS d 506     -22.799  45.975 172.486  0.00  0.00     0.294 C 
ATOM     22  C2  IDS d 506     -22.859  44.441 172.442  0.00  0.00     0.231 C 
ATOM     23  C3  IDS d 506     -24.303  43.886 172.297  0.00  0.00     0.185 C 
ATOM     24  C4  IDS d 506     -25.204  44.732 171.372  0.00  0.00     0.189 C 
ATOM     25  C5  IDS d 506     -24.924  46.226 171.560  0.00  0.00     0.256 C 
ATOM     26  O5  IDS d 506     -23.564  46.478 171.420  0.00  0.00    -0.340 OA
BRANCH  22  27
ATOM     27  O2  IDS d 506     -22.122  43.957 171.337  0.00  0.00    -0.244 OA
BRANCH  27  28
ATOM     28  S   IDS d 506     -21.003  42.828 171.319  0.00  0.00     0.252 S 
ATOM     29  O1S IDS d 506     -20.095  43.188 172.363  0.00  0.00    -0.572 OA
ATOM     30  O2S IDS d 506     -21.635  41.570 171.596  0.00  0.00    -0.572 OA
ATOM     31  O3S IDS d 506     -20.411  42.892 170.000  0.00  0.00    -0.572 OA
ENDBRANCH  27  28
ENDBRANCH  22  27
BRANCH  23  32
ATOM     32  O3  IDS d 506     -24.901  43.837 173.590  0.00  0.00    -0.390 OA
ATOM     33  H   IDS d 506     -25.569  43.134 173.611  0.00  0.00     0.210 HD
ENDBRANCH  23  32
BRANCH  24  34
ATOM     34  O4  IDS d 506     -24.911  44.356 170.046  0.00  0.00    -0.390 OA
ATOM     35  H   IDS d 506     -25.662  43.867 169.675  0.00  0.00     0.210 HD
ENDBRANCH  24  34
BRANCH  25  36
ATOM     36  C6  IDS d 506     -25.706  47.180 170.676  0.00  0.00     0.206 C 
ATOM     37  O62 IDS d 506     -25.726  48.382 170.881  0.00  0.00    -0.646 OA
ATOM     38  O61 IDS d 506     -26.330  46.751 169.716  0.00  0.00    -0.646 OA
ENDBRANCH  25  36
ENDBRANCH  20  21
ENDBRANCH  11  20
BRANCH  12  39
ATOM     39  O3  SGN d 505     -21.229  47.741 174.983  0.00  0.00    -0.391 OA
ATOM     40  H   SGN d 505     -21.020  48.370 175.692  0.00  0.00     0.210 HD
ENDBRANCH  12  39
BRANCH  13  41
ATOM     41  N   SGN d 505     -19.180  49.850 175.133  0.00  0.00    -0.210 NA
ATOM     42  H   SGN d 505     -18.544  50.603 174.872  0.00  0.00     0.140 HD
BRANCH  41  43
ATOM     43  S1  SGN d 505     -20.149  50.420 176.375  0.00  0.00     0.156 S 
BRANCH  43  44
ATOM     44  O3S SGN d 505     -19.501  51.561 176.916  0.00  0.00    -0.296 OA
ATOM     45  H   SGN d 505     -18.554  51.524 176.707  0.00  0.00     0.231 HD
ENDBRANCH  43  44
BRANCH  43  46
ATOM     46  O1S SGN d 505     -21.449  50.722 175.813  0.00  0.00    -0.296 OA
ATOM     47  H   SGN d 505     -21.943  49.898 175.681  0.00  0.00     0.231 HD
ENDBRANCH  43  46
BRANCH  43  48
ATOM     48  O2S SGN d 505     -20.200  49.341 177.333  0.00  0.00    -0.296 OA
ATOM     49  H   SGN d 505     -19.455  49.420 177.949  0.00  0.00     0.231 HD
ENDBRANCH  43  48
ENDBRANCH  41  43
ENDBRANCH  13  41
ENDBRANCH   7   8
ENDBRANCH   2   7
BRANCH   1  50
ATOM     50  O3  IDS d 504     -15.043  51.184 171.914  0.00  0.00    -0.390 OA
ATOM     51  H   IDS d 504     -14.129  51.119 172.235  0.00  0.00     0.210 HD
ENDBRANCH   1  50
BRANCH   6  52
ATOM     52  C6  IDS d 504     -16.393  47.351 170.591  0.00  0.00     0.206 C 
ATOM     53  O62 IDS d 504     -16.230  46.142 170.766  0.00  0.00    -0.646 OA
ATOM     54  O61 IDS d 504     -17.056  47.707 169.625  0.00  0.00    -0.646 OA
ENDBRANCH   6  52
BRANCH   5  55
ATOM     55  O2  IDS d 504     -15.895  49.422 175.033  0.00  0.00    -0.244 OA
BRANCH  55  56
ATOM     56  S   IDS d 504     -15.662  49.727 176.524  0.00  0.00     0.252 S 
ATOM     57  O2S IDS d 504     -14.358  50.309 176.650  0.00  0.00    -0.572 OA
ATOM     58  O3S IDS d 504     -16.733  50.590 176.859  0.00  0.00    -0.572 OA
ATOM     59  O1S IDS d 504     -15.749  48.487 177.205  0.00  0.00    -0.572 OA
ENDBRANCH  55  56
ENDBRANCH   5  55
BRANCH   3  60
ATOM     60  O4  SGN d 503     -13.201  48.990 172.733  0.00  0.00    -0.348 OA
BRANCH  60  61
ATOM     61  C4  SGN d 503     -12.092  48.169 172.905  0.00  0.00     0.186 C 
ATOM     62  C5  SGN d 503     -11.121  48.849 173.886  0.00  0.00     0.181 C 
ATOM     63  O5  SGN d 503      -9.943  48.116 174.013  0.00  0.00    -0.349 OA
ATOM     64  C1  SGN d 503      -9.229  47.994 172.808  0.00  0.00     0.282 C 
ATOM     65  C2  SGN d 503     -10.095  47.264 171.770  0.00  0.00     0.157 C 
ATOM     66  C3  SGN d 503     -11.419  47.973 171.549  0.00  0.00     0.173 C 
BRANCH  62  67
ATOM     67  C6  SGN d 503     -11.643  48.975 175.292  0.00  0.00     0.227 C 
BRANCH  67  68
ATOM     68  O6  SGN d 503     -11.311  47.786 175.976  0.00  0.00    -0.254 OA
BRANCH  68  69
ATOM     69  S2  SGN d 503     -12.324  46.788 176.595  0.00  0.00     0.251 S 
ATOM     70  O6S SGN d 503     -12.713  47.409 177.801  0.00  0.00    -0.572 OA
ATOM     71  O4S SGN d 503     -13.440  46.681 175.718  0.00  0.00    -0.572 OA
ATOM     72  O5S SGN d 503     -11.628  45.514 176.751  0.00  0.00    -0.572 OA
ENDBRANCH  68  69
ENDBRANCH  67  68
ENDBRANCH  62  67
BRANCH  64  73
ATOM     73  O4  IDS d 502      -8.818  49.244 172.326  0.00  0.00    -0.348 OA
BRANCH  73  74
ATOM     74  C4  IDS d 502      -7.660  49.756 172.934  0.00  0.00     0.195 C 
ATOM     75  C3  IDS d 502      -6.425  49.380 172.093  0.00  0.00     0.185 C 
ATOM     76  C2  IDS d 502      -6.409  50.148 170.769  0.00  0.00     0.231 C 
ATOM     77  C1  IDS d 502      -6.660  51.639 170.972  0.00  0.00     0.291 C 
ATOM     78  O5  IDS d 502      -7.807  51.862 171.753  0.00  0.00    -0.340 OA
ATOM     79  C5  IDS d 502      -7.772  51.276 173.040  0.00  0.00     0.257 C 
BRANCH  75  80
ATOM     80  O3  IDS d 502      -5.257  49.723 172.814  0.00  0.00    -0.390 OA
ATOM     81  H   IDS d 502      -4.572  50.019 172.195  0.00  0.00     0.210 HD
ENDBRANCH  75  80
BRANCH  76  82
ATOM     82  O2  IDS d 502      -7.448  49.636 169.977  0.00  0.00    -0.244 OA
BRANCH  82  83
ATOM     83  S   IDS d 502      -7.353  49.066 168.524  0.00  0.00     0.252 S 
ATOM     84  O3S IDS d 502      -6.635  47.825 168.662  0.00  0.00    -0.572 OA
ATOM     85  O2S IDS d 502      -6.648  50.064 167.754  0.00  0.00    -0.572 OA
ATOM     86  O1S IDS d 502      -8.696  48.864 168.057  0.00  0.00    -0.572 OA
ENDBRANCH  82  83
ENDBRANCH  76  82
BRANCH  77  87
ATOM     87  O1  IDS d 502      -5.504  52.197 171.539  0.00  0.00    -0.368 OA
ATOM     88  H   IDS d 502      -4.995  51.503 171.986  0.00  0.00     0.212 HD
ENDBRANCH  77  87
BRANCH  79  89
ATOM     89  C6  IDS d 502      -8.943  51.758 173.883  0.00  0.00     0.206 C 
ATOM     90  O61 IDS d 502      -8.965  51.592 175.079  0.00  0.00    -0.646 OA
ATOM     91  O62 IDS d 502      -9.887  52.331 173.375  0.00  0.00    -0.646 OA
ENDBRANCH  79  89
ENDBRANCH  73  74
ENDBRANCH  64  73
BRANCH  65  92
ATOM     92  N   SGN d 503      -9.367  47.101 170.524  0.00  0.00    -0.210 NA
ATOM     93  H   SGN d 503      -8.473  47.580 170.628  0.00  0.00     0.140 HD
BRANCH  92  94
ATOM     94  S1  SGN d 503      -9.052  45.583 170.030  0.00  0.00     0.156 S 
BRANCH  94  95
ATOM     95  O2S SGN d 503     -10.275  44.794 170.169  0.00  0.00    -0.296 OA
ATOM     96  H   SGN d 503     -10.624  44.582 169.289  0.00  0.00     0.231 HD
ENDBRANCH  94  95
BRANCH  94  97
ATOM     97  O1S SGN d 503      -7.987  45.093 170.884  0.00  0.00    -0.296 OA
ATOM     98  H   SGN d 503      -7.981  45.595 171.714  0.00  0.00     0.231 HD
ENDBRANCH  94  97
BRANCH  94  99
ATOM     99  O3S SGN d 503      -8.624  45.763 168.660  0.00  0.00    -0.296 OA
ATOM    100  H   SGN d 503      -7.941  46.450 168.623  0.00  0.00     0.231 HD
ENDBRANCH  94  99
ENDBRANCH  92  94
ENDBRANCH  65  92
BRANCH  66 101
ATOM    101  O3  SGN d 503     -12.267  47.171 170.748  0.00  0.00    -0.391 OA
ATOM    102  H   SGN d 503     -11.735  46.689 170.097  0.00  0.00     0.210 HD
ENDBRANCH  66 101
ENDBRANCH  60  61
ENDBRANCH   3  60
TORSDOF 40
ENDMDL
MODEL 35
REMARK VINA RESULT:      -3.0      2.754     12.697
REMARK WARNING: 32 MAX_TORS EXCEEDED!!!
REMARK  40 active torsions:
REMARK  status: ('A' for Active; 'I' for Inactive)
REMARK    1 I    between atoms: C6_1  and  C5_8 
REMARK    2 I    between atoms: C6_1  and  O6_57 
REMARK    3 I    between atoms: O4_2  and  C4_49 
REMARK    4 I    between atoms: O6_3  and  C6_7 
REMARK    5 I    between atoms: O6_3  and  S2_58 
REMARK    6 I    between atoms: S_4  and  O2_6 
REMARK    7 I    between atoms: O3_5  and  C3_81 
REMARK    8 I    between atoms: O2_6  and  C2_11 
REMARK    9 I    between atoms: C6_7  and  C5_54 
REMARK   10 I    between atoms: O4_9  and  C4_32 
REMARK   11 I    between atoms: O4_9  and  C1_39 
REMARK   12 I    between atoms: O3_12  and  C3_18 
REMARK   13 I    between atoms: N_13  and  C2_52 
REMARK   14 I    between atoms: N_13  and  S1_45 
REMARK   15 I    between atoms: O3_17  and  C3_83 
REMARK   16 I    between atoms: C4_20  and  O4_44 
REMARK   17 I    between atoms: N_21  and  C2_66 
REMARK   18 I    between atoms: N_21  and  S1_53 
REMARK   19 I    between atoms: O3_22  and  C3_65 
REMARK   20 I    between atoms: C4_23  and  O4_74 
REMARK   21 I    between atoms: C1_25  and  O1_72 
REMARK   22 I    between atoms: C2_28  and  O2_69 
REMARK   23 I    between atoms: C4_33  and  O4_61 
REMARK   24 I    between atoms: O2S_34  and  S1_45 
REMARK   25 I    between atoms: C6_37  and  C5_47 
REMARK   26 I    between atoms: O2_38  and  C2_77 
REMARK   27 I    between atoms: O2_38  and  S_50 
REMARK   28 I    between atoms: O3S_40  and  S1_53 
REMARK   29 I    between atoms: O1S_42  and  S1_45 
REMARK   30 I    between atoms: O1S_43  and  S1_53 
REMARK   31 I    between atoms: O4_44  and  C1_46 
REMARK   32 I    between atoms: S1_45  and  O3S_60 
REMARK   33 I    between atoms: C6_48  and  C5_84 
REMARK   34 I    between atoms: C6_51  and  C5_87 
REMARK   35 I    between atoms: S1_53  and  O2S_55 
REMARK   36 I    between atoms: C1_56  and  O4_74 
REMARK   37 I    between atoms: O6_57  and  S2_82 
REMARK   38 I    between atoms: O4_61  and  C1_70 
REMARK   39 I    between atoms: C3_63  and  O3_79 
REMARK   40 I    between atoms: O2_69  and  S_76 
ROOT
ATOM      1  C3  IDS d 504     -16.033  48.247 175.553  0.00  0.00     0.185 C 
ATOM      2  C4  IDS d 504     -16.158  49.609 174.887  0.00  0.00     0.195 C 
ATOM      3  C1  IDS d 504     -15.733  47.261 173.197  0.00  0.00     0.294 C 
ATOM      4  O5  IDS d 504     -15.899  48.599 172.717  0.00  0.00    -0.340 OA
ATOM      5  C2  IDS d 504     -16.379  47.075 174.556  0.00  0.00     0.231 C 
ATOM      6  C5  IDS d 504     -15.379  49.591 173.573  0.00  0.00     0.257 C 
ENDROOT
BRANCH   2   7
ATOM      7  O4  IDS d 504     -17.529  49.886 174.639  0.00  0.00    -0.348 OA
BRANCH   7   8
ATOM      8  C1  SGN d 505     -18.209  50.417 175.744  0.00  0.00     0.282 C 
ATOM      9  O5  SGN d 505     -17.933  51.783 175.876  0.00  0.00    -0.349 OA
ATOM     10  C5  SGN d 505     -18.394  52.555 174.811  0.00  0.00     0.181 C 
ATOM     11  C4  SGN d 505     -19.887  52.514 174.747  0.00  0.00     0.186 C 
ATOM     12  C3  SGN d 505     -20.279  51.037 174.455  0.00  0.00     0.173 C 
ATOM     13  C2  SGN d 505     -19.707  50.215 175.626  0.00  0.00     0.157 C 
BRANCH  10  14
ATOM     14  C6  SGN d 505     -17.861  53.934 175.031  0.00  0.00     0.227 C 
BRANCH  14  15
ATOM     15  O6  SGN d 505     -16.960  53.811 176.078  0.00  0.00    -0.254 OA
BRANCH  15  16
ATOM     16  S2  SGN d 505     -15.743  54.683 176.352  0.00  0.00     0.251 S 
ATOM     17  O5S SGN d 505     -15.166  54.919 175.052  0.00  0.00    -0.572 OA
ATOM     18  O4S SGN d 505     -14.918  53.894 177.239  0.00  0.00    -0.572 OA
ATOM     19  O6S SGN d 505     -16.230  55.906 176.977  0.00  0.00    -0.572 OA
ENDBRANCH  15  16
ENDBRANCH  14  15
ENDBRANCH  10  14
BRANCH  11  20
ATOM     20  O4  SGN d 505     -20.255  53.450 173.756  0.00  0.00    -0.348 OA
BRANCH  20  21
ATOM     21  C1  IDS d 506     -21.344  54.301 173.871  0.00  0.00     0.294 C 
ATOM     22  C2  IDS d 506     -21.372  55.240 172.656  0.00  0.00     0.231 C 
ATOM     23  C3  IDS d 506     -22.333  56.447 172.835  0.00  0.00     0.185 C 
ATOM     24  C4  IDS d 506     -22.352  57.020 174.268  0.00  0.00     0.189 C 
ATOM     25  C5  IDS d 506     -22.261  55.895 175.303  0.00  0.00     0.256 C 
ATOM     26  O5  IDS d 506     -21.170  55.079 175.028  0.00  0.00    -0.340 OA
BRANCH  22  27
ATOM     27  O2  IDS d 506     -20.083  55.773 172.424  0.00  0.00    -0.244 OA
BRANCH  27  28
ATOM     28  S   IDS d 506     -19.218  55.710 171.093  0.00  0.00     0.252 S 
ATOM     29  O1S IDS d 506     -19.700  54.562 170.389  0.00  0.00    -0.572 OA
ATOM     30  O2S IDS d 506     -19.460  56.912 170.346  0.00  0.00    -0.572 OA
ATOM     31  O3S IDS d 506     -17.845  55.576 171.530  0.00  0.00    -0.572 OA
ENDBRANCH  27  28
ENDBRANCH  22  27
BRANCH  23  32
ATOM     32  O3  IDS d 506     -23.653  56.029 172.497  0.00  0.00    -0.390 OA
ATOM     33  H   IDS d 506     -24.272  56.325 173.183  0.00  0.00     0.210 HD
ENDBRANCH  23  32
BRANCH  24  34
ATOM     34  O4  IDS d 506     -21.236  57.871 174.392  0.00  0.00    -0.390 OA
ATOM     35  H   IDS d 506     -20.548  57.429 174.914  0.00  0.00     0.210 HD
ENDBRANCH  24  34
BRANCH  25  36
ATOM     36  C6  IDS d 506     -22.221  56.315 176.761  0.00  0.00     0.206 C 
ATOM     37  O62 IDS d 506     -21.237  56.837 177.256  0.00  0.00    -0.646 OA
ATOM     38  O61 IDS d 506     -23.201  56.146 177.473  0.00  0.00    -0.646 OA
ENDBRANCH  25  36
ENDBRANCH  20  21
ENDBRANCH  11  20
BRANCH  12  39
ATOM     39  O3  SGN d 505     -21.693  50.888 174.447  0.00  0.00    -0.391 OA
ATOM     40  H   SGN d 505     -22.087  51.570 173.880  0.00  0.00     0.210 HD
ENDBRANCH  12  39
BRANCH  13  41
ATOM     41  N   SGN d 505     -20.003  48.764 175.586  0.00  0.00    -0.210 NA
ATOM     42  H   SGN d 505     -19.222  48.305 175.117  0.00  0.00     0.140 HD
BRANCH  41  43
ATOM     43  S1  SGN d 505     -20.239  47.981 177.049  0.00  0.00     0.156 S 
BRANCH  43  44
ATOM     44  O3S SGN d 505     -20.679  48.962 177.977  0.00  0.00    -0.296 OA
ATOM     45  H   SGN d 505     -20.028  49.046 178.691  0.00  0.00     0.231 HD
ENDBRANCH  43  44
BRANCH  43  46
ATOM     46  O1S SGN d 505     -21.212  46.931 176.832  0.00  0.00    -0.296 OA
ATOM     47  H   SGN d 505     -20.759  46.129 176.531  0.00  0.00     0.231 HD
ENDBRANCH  43  46
BRANCH  43  48
ATOM     48  O2S SGN d 505     -18.940  47.463 177.408  0.00  0.00    -0.296 OA
ATOM     49  H   SGN d 505     -19.035  46.563 177.757  0.00  0.00     0.231 HD
ENDBRANCH  43  48
ENDBRANCH  41  43
ENDBRANCH  13  41
ENDBRANCH   7   8
ENDBRANCH   2   7
BRANCH   1  50
ATOM     50  O3  IDS d 504     -14.687  48.118 175.992  0.00  0.00    -0.390 OA
ATOM     51  H   IDS d 504     -14.101  48.589 175.378  0.00  0.00     0.210 HD
ENDBRANCH   1  50
BRANCH   6  52
ATOM     52  C6  IDS d 504     -15.300  50.943 172.844  0.00  0.00     0.206 C 
ATOM     53  O62 IDS d 504     -15.231  51.000 171.615  0.00  0.00    -0.646 OA
ATOM     54  O61 IDS d 504     -15.284  51.996 173.469  0.00  0.00    -0.646 OA
ENDBRANCH   6  52
BRANCH   5  55
ATOM     55  O2  IDS d 504     -17.789  46.976 174.371  0.00  0.00    -0.244 OA
BRANCH  55  56
ATOM     56  S   IDS d 504     -18.623  45.682 174.324  0.00  0.00     0.252 S 
ATOM     57  O2S IDS d 504     -18.117  44.881 173.248  0.00  0.00    -0.572 OA
ATOM     58  O3S IDS d 504     -18.449  45.126 175.613  0.00  0.00    -0.572 OA
ATOM     59  O1S IDS d 504     -19.964  46.078 174.094  0.00  0.00    -0.572 OA
ENDBRANCH  55  56
ENDBRANCH   5  55
BRANCH   3  60
ATOM     60  O4  SGN d 503     -14.388  46.889 173.295  0.00  0.00    -0.348 OA
BRANCH  60  61
ATOM     61  C4  SGN d 503     -13.879  46.300 172.143  0.00  0.00     0.186 C 
ATOM     62  C5  SGN d 503     -13.148  45.004 172.534  0.00  0.00     0.181 C 
ATOM     63  O5  SGN d 503     -12.527  44.427 171.428  0.00  0.00    -0.349 OA
ATOM     64  C1  SGN d 503     -11.543  45.248 170.849  0.00  0.00     0.282 C 
ATOM     65  C2  SGN d 503     -12.186  46.555 170.364  0.00  0.00     0.157 C 
ATOM     66  C3  SGN d 503     -12.904  47.277 171.490  0.00  0.00     0.173 C 
BRANCH  62  67
ATOM     67  C6  SGN d 503     -14.045  43.922 173.071  0.00  0.00     0.227 C 
BRANCH  67  68
ATOM     68  O6  SGN d 503     -14.053  42.870 172.132  0.00  0.00    -0.254 OA
BRANCH  68  69
ATOM     69  S2  SGN d 503     -15.242  42.491 171.210  0.00  0.00     0.251 S 
ATOM     70  O6S SGN d 503     -16.056  41.679 172.028  0.00  0.00    -0.572 OA
ATOM     71  O4S SGN d 503     -15.935  43.684 170.861  0.00  0.00    -0.572 OA
ATOM     72  O5S SGN d 503     -14.680  41.824 170.039  0.00  0.00    -0.572 OA
ENDBRANCH  68  69
ENDBRANCH  67  68
ENDBRANCH  62  67
BRANCH  64  73
ATOM     73  O4  IDS d 502     -10.498  45.507 171.747  0.00  0.00    -0.348 OA
BRANCH  73  74
ATOM     74  C4  IDS d 502      -9.404  44.632 171.645  0.00  0.00     0.195 C 
ATOM     75  C3  IDS d 502      -8.345  45.236 170.704  0.00  0.00     0.185 C 
ATOM     76  C2  IDS d 502      -7.671  46.452 171.346  0.00  0.00     0.231 C 
ATOM     77  C1  IDS d 502      -7.222  46.165 172.775  0.00  0.00     0.291 C 
ATOM     78  O5  IDS d 502      -8.266  45.615 173.539  0.00  0.00    -0.340 OA
ATOM     79  C5  IDS d 502      -8.801  44.409 173.030  0.00  0.00     0.257 C 
BRANCH  75  80
ATOM     80  O3  IDS d 502      -7.348  44.266 170.450  0.00  0.00    -0.390 OA
ATOM     81  H   IDS d 502      -6.472  44.665 170.567  0.00  0.00     0.210 HD
ENDBRANCH  75  80
BRANCH  76  82
ATOM     82  O2  IDS d 502      -8.623  47.482 171.388  0.00  0.00    -0.244 OA
BRANCH  82  83
ATOM     83  S   IDS d 502      -8.475  48.945 170.855  0.00  0.00     0.252 S 
ATOM     84  O3S IDS d 502      -7.297  49.456 171.507  0.00  0.00    -0.572 OA
ATOM     85  O2S IDS d 502      -9.691  49.627 171.232  0.00  0.00    -0.572 OA
ATOM     86  O1S IDS d 502      -8.312  48.865 169.430  0.00  0.00    -0.572 OA
ENDBRANCH  82  83
ENDBRANCH  76  82
BRANCH  77  87
ATOM     87  O1  IDS d 502      -6.099  45.326 172.714  0.00  0.00    -0.368 OA
ATOM     88  H   IDS d 502      -5.566  45.441 173.517  0.00  0.00     0.212 HD
ENDBRANCH  77  87
BRANCH  79  89
ATOM     89  C6  IDS d 502      -9.757  43.778 174.033  0.00  0.00     0.206 C 
ATOM     90  O61 IDS d 502      -9.790  44.145 175.182  0.00  0.00    -0.646 OA
ATOM     91  O62 IDS d 502     -10.516  42.889 173.700  0.00  0.00    -0.646 OA
ENDBRANCH  79  89
ENDBRANCH  73  74
ENDBRANCH  64  73
BRANCH  65  92
ATOM     92  N   SGN d 503     -11.193  47.408 169.736  0.00  0.00    -0.210 NA
ATOM     93  H   SGN d 503     -10.455  46.804 169.376  0.00  0.00     0.140 HD
BRANCH  92  94
ATOM     94  S1  SGN d 503     -11.684  48.361 168.512  0.00  0.00     0.156 S 
BRANCH  94  95
ATOM     95  O2S SGN d 503     -11.881  49.712 169.035  0.00  0.00    -0.296 OA
ATOM     96  H   SGN d 503     -11.239  49.882 169.742  0.00  0.00     0.231 HD
ENDBRANCH  94  95
BRANCH  94  97
ATOM     97  O1S SGN d 503     -12.919  47.782 168.019  0.00  0.00    -0.296 OA
ATOM     98  H   SGN d 503     -12.899  47.757 167.049  0.00  0.00     0.231 HD
ENDBRANCH  94  97
BRANCH  94  99
ATOM     99  O3S SGN d 503     -10.603  48.256 167.557  0.00  0.00    -0.296 OA
ATOM    100  H   SGN d 503     -10.215  47.369 167.606  0.00  0.00     0.231 HD
ENDBRANCH  94  99
ENDBRANCH  92  94
ENDBRANCH  65  92
BRANCH  66 101
ATOM    101  O3  SGN d 503     -13.649  48.361 170.969  0.00  0.00    -0.391 OA
ATOM    102  H   SGN d 503     -13.941  48.932 171.696  0.00  0.00     0.210 HD
ENDBRANCH  66 101
ENDBRANCH  60  61
ENDBRANCH   3  60
TORSDOF 40
ENDMDL
MODEL 36
REMARK VINA RESULT:      -3.0      3.126     12.640
REMARK WARNING: 32 MAX_TORS EXCEEDED!!!
REMARK  40 active torsions:
REMARK  status: ('A' for Active; 'I' for Inactive)
REMARK    1 I    between atoms: C6_1  and  C5_8 
REMARK    2 I    between atoms: C6_1  and  O6_57 
REMARK    3 I    between atoms: O4_2  and  C4_49 
REMARK    4 I    between atoms: O6_3  and  C6_7 
REMARK    5 I    between atoms: O6_3  and  S2_58 
REMARK    6 I    between atoms: S_4  and  O2_6 
REMARK    7 I    between atoms: O3_5  and  C3_81 
REMARK    8 I    between atoms: O2_6  and  C2_11 
REMARK    9 I    between atoms: C6_7  and  C5_54 
REMARK   10 I    between atoms: O4_9  and  C4_32 
REMARK   11 I    between atoms: O4_9  and  C1_39 
REMARK   12 I    between atoms: O3_12  and  C3_18 
REMARK   13 I    between atoms: N_13  and  C2_52 
REMARK   14 I    between atoms: N_13  and  S1_45 
REMARK   15 I    between atoms: O3_17  and  C3_83 
REMARK   16 I    between atoms: C4_20  and  O4_44 
REMARK   17 I    between atoms: N_21  and  C2_66 
REMARK   18 I    between atoms: N_21  and  S1_53 
REMARK   19 I    between atoms: O3_22  and  C3_65 
REMARK   20 I    between atoms: C4_23  and  O4_74 
REMARK   21 I    between atoms: C1_25  and  O1_72 
REMARK   22 I    between atoms: C2_28  and  O2_69 
REMARK   23 I    between atoms: C4_33  and  O4_61 
REMARK   24 I    between atoms: O2S_34  and  S1_45 
REMARK   25 I    between atoms: C6_37  and  C5_47 
REMARK   26 I    between atoms: O2_38  and  C2_77 
REMARK   27 I    between atoms: O2_38  and  S_50 
REMARK   28 I    between atoms: O3S_40  and  S1_53 
REMARK   29 I    between atoms: O1S_42  and  S1_45 
REMARK   30 I    between atoms: O1S_43  and  S1_53 
REMARK   31 I    between atoms: O4_44  and  C1_46 
REMARK   32 I    between atoms: S1_45  and  O3S_60 
REMARK   33 I    between atoms: C6_48  and  C5_84 
REMARK   34 I    between atoms: C6_51  and  C5_87 
REMARK   35 I    between atoms: S1_53  and  O2S_55 
REMARK   36 I    between atoms: C1_56  and  O4_74 
REMARK   37 I    between atoms: O6_57  and  S2_82 
REMARK   38 I    between atoms: O4_61  and  C1_70 
REMARK   39 I    between atoms: C3_63  and  O3_79 
REMARK   40 I    between atoms: O2_69  and  S_76 
ROOT
ATOM      1  C3  IDS d 504     -17.538  47.721 175.298  0.00  0.00     0.185 C 
ATOM      2  C4  IDS d 504     -17.037  49.146 175.125  0.00  0.00     0.195 C 
ATOM      3  C1  IDS d 504     -17.163  47.414 172.773  0.00  0.00     0.294 C 
ATOM      4  O5  IDS d 504     -16.743  48.783 172.763  0.00  0.00    -0.340 OA
ATOM      5  C2  IDS d 504     -18.081  47.123 173.943  0.00  0.00     0.231 C 
ATOM      6  C5  IDS d 504     -16.078  49.193 173.937  0.00  0.00     0.257 C 
ENDROOT
BRANCH   2   7
ATOM      7  O4  IDS d 504     -18.142  50.008 174.896  0.00  0.00    -0.348 OA
BRANCH   7   8
ATOM      8  C1  SGN d 505     -18.862  50.327 176.055  0.00  0.00     0.282 C 
ATOM      9  O5  SGN d 505     -18.078  51.099 176.920  0.00  0.00    -0.349 OA
ATOM     10  C5  SGN d 505     -17.732  52.346 176.402  0.00  0.00     0.181 C 
ATOM     11  C4  SGN d 505     -18.953  53.186 176.208  0.00  0.00     0.186 C 
ATOM     12  C3  SGN d 505     -19.825  52.464 175.140  0.00  0.00     0.173 C 
ATOM     13  C2  SGN d 505     -20.140  51.075 175.729  0.00  0.00     0.157 C 
BRANCH  10  14
ATOM     14  C6  SGN d 505     -16.763  52.947 177.367  0.00  0.00     0.227 C 
BRANCH  14  15
ATOM     15  O6  SGN d 505     -16.452  51.926 178.253  0.00  0.00    -0.254 OA
BRANCH  15  16
ATOM     16  S2  SGN d 505     -15.079  51.331 178.527  0.00  0.00     0.251 S 
ATOM     17  O5S SGN d 505     -15.024  51.194 179.961  0.00  0.00    -0.572 OA
ATOM     18  O4S SGN d 505     -14.146  52.290 177.981  0.00  0.00    -0.572 OA
ATOM     19  O6S SGN d 505     -15.030  50.046 177.842  0.00  0.00    -0.572 OA
ENDBRANCH  15  16
ENDBRANCH  14  15
ENDBRANCH  10  14
BRANCH  11  20
ATOM     20  O4  SGN d 505     -18.485  54.468 175.846  0.00  0.00    -0.348 OA
BRANCH  20  21
ATOM     21  C1  IDS d 506     -19.302  55.469 175.344  0.00  0.00     0.294 C 
ATOM     22  C2  IDS d 506     -18.423  56.620 174.835  0.00  0.00     0.231 C 
ATOM     23  C3  IDS d 506     -19.217  57.928 174.563  0.00  0.00     0.185 C 
ATOM     24  C4  IDS d 506     -20.341  58.195 175.586  0.00  0.00     0.189 C 
ATOM     25  C5  IDS d 506     -21.038  56.889 175.980  0.00  0.00     0.256 C 
ATOM     26  O5  IDS d 506     -20.099  55.953 176.395  0.00  0.00    -0.340 OA
BRANCH  22  27
ATOM     27  O2  IDS d 506     -17.431  56.935 175.793  0.00  0.00    -0.244 OA
BRANCH  27  28
ATOM     28  S   IDS d 506     -15.854  56.789 175.661  0.00  0.00     0.252 S 
ATOM     29  O1S IDS d 506     -15.656  55.791 174.656  0.00  0.00    -0.572 OA
ATOM     30  O2S IDS d 506     -15.322  58.055 175.243  0.00  0.00    -0.572 OA
ATOM     31  O3S IDS d 506     -15.393  56.380 176.970  0.00  0.00    -0.572 OA
ENDBRANCH  27  28
ENDBRANCH  22  27
BRANCH  23  32
ATOM     32  O3  IDS d 506     -19.796  57.844 173.264  0.00  0.00    -0.390 OA
ATOM     33  H   IDS d 506     -19.196  57.363 172.672  0.00  0.00     0.210 HD
ENDBRANCH  23  32
BRANCH  24  34
ATOM     34  O4  IDS d 506     -19.745  58.777 176.721  0.00  0.00    -0.390 OA
ATOM     35  H   IDS d 506     -18.811  58.965 176.535  0.00  0.00     0.210 HD
ENDBRANCH  24  34
BRANCH  25  36
ATOM     36  C6  IDS d 506     -22.139  56.993 177.019  0.00  0.00     0.206 C 
ATOM     37  O62 IDS d 506     -23.004  56.142 177.132  0.00  0.00    -0.646 OA
ATOM     38  O61 IDS d 506     -22.167  57.945 177.787  0.00  0.00    -0.646 OA
ENDBRANCH  25  36
ENDBRANCH  20  21
ENDBRANCH  11  20
BRANCH  12  39
ATOM     39  O3  SGN d 505     -21.049  53.158 174.942  0.00  0.00    -0.391 OA
ATOM     40  H   SGN d 505     -21.143  53.847 175.619  0.00  0.00     0.210 HD
ENDBRANCH  12  39
BRANCH  13  41
ATOM     41  N   SGN d 505     -21.012  50.215 174.896  0.00  0.00    -0.210 NA
ATOM     42  H   SGN d 505     -20.578  49.293 174.850  0.00  0.00     0.140 HD
BRANCH  41  43
ATOM     43  S1  SGN d 505     -22.596  50.001 175.398  0.00  0.00     0.156 S 
BRANCH  43  44
ATOM     44  O3S SGN d 505     -23.143  51.294 175.607  0.00  0.00    -0.296 OA
ATOM     45  H   SGN d 505     -22.593  51.779 176.242  0.00  0.00     0.231 HD
ENDBRANCH  43  44
BRANCH  43  46
ATOM     46  O1S SGN d 505     -23.285  49.256 174.365  0.00  0.00    -0.296 OA
ATOM     47  H   SGN d 505     -23.008  48.327 174.398  0.00  0.00     0.231 HD
ENDBRANCH  43  46
BRANCH  43  48
ATOM     48  O2S SGN d 505     -22.497  49.265 176.636  0.00  0.00    -0.296 OA
ATOM     49  H   SGN d 505     -22.752  48.341 176.485  0.00  0.00     0.231 HD
ENDBRANCH  43  48
ENDBRANCH  41  43
ENDBRANCH  13  41
ENDBRANCH   7   8
ENDBRANCH   2   7
BRANCH   1  50
ATOM     50  O3  IDS d 504     -16.439  46.943 175.755  0.00  0.00    -0.390 OA
ATOM     51  H   IDS d 504     -16.739  46.336 176.450  0.00  0.00     0.210 HD
ENDBRANCH   1  50
BRANCH   6  52
ATOM     52  C6  IDS d 504     -15.381  50.546 173.714  0.00  0.00     0.206 C 
ATOM     53  O62 IDS d 504     -15.077  51.269 174.664  0.00  0.00    -0.646 OA
ATOM     54  O61 IDS d 504     -15.127  50.945 172.585  0.00  0.00    -0.646 OA
ENDBRANCH   6  52
BRANCH   5  55
ATOM     55  O2  IDS d 504     -19.370  47.656 173.644  0.00  0.00    -0.244 OA
BRANCH  55  56
ATOM     56  S   IDS d 504     -20.718  46.919 173.751  0.00  0.00     0.252 S 
ATOM     57  O2S IDS d 504     -20.505  45.564 173.333  0.00  0.00    -0.572 OA
ATOM     58  O3S IDS d 504     -21.075  47.073 175.112  0.00  0.00    -0.572 OA
ATOM     59  O1S IDS d 504     -21.614  47.597 172.888  0.00  0.00    -0.572 OA
ENDBRANCH  55  56
ENDBRANCH   5  55
BRANCH   3  60
ATOM     60  O4  SGN d 503     -16.087  46.523 172.827  0.00  0.00    -0.348 OA
BRANCH  60  61
ATOM     61  C4  SGN d 503     -15.633  46.107 171.580  0.00  0.00     0.186 C 
ATOM     62  C5  SGN d 503     -15.282  44.611 171.657  0.00  0.00     0.181 C 
ATOM     63  O5  SGN d 503     -14.721  44.166 170.461  0.00  0.00    -0.349 OA
ATOM     64  C1  SGN d 503     -13.517  44.815 170.134  0.00  0.00     0.282 C 
ATOM     65  C2  SGN d 503     -13.773  46.320 169.971  0.00  0.00     0.157 C 
ATOM     66  C3  SGN d 503     -14.393  46.921 171.219  0.00  0.00     0.173 C 
BRANCH  62  67
ATOM     67  C6  SGN d 503     -16.462  43.705 171.882  0.00  0.00     0.227 C 
BRANCH  67  68
ATOM     68  O6  SGN d 503     -17.388  43.949 170.846  0.00  0.00    -0.254 OA
BRANCH  68  69
ATOM     69  S2  SGN d 503     -18.612  43.059 170.502  0.00  0.00     0.251 S 
ATOM     70  O6S SGN d 503     -18.351  42.622 169.186  0.00  0.00    -0.572 OA
ATOM     71  O4S SGN d 503     -18.623  41.949 171.393  0.00  0.00    -0.572 OA
ATOM     72  O5S SGN d 503     -19.802  43.892 170.653  0.00  0.00    -0.572 OA
ENDBRANCH  68  69
ENDBRANCH  67  68
ENDBRANCH  62  67
BRANCH  64  73
ATOM     73  O4  IDS d 502     -12.528  44.576 171.098  0.00  0.00    -0.348 OA
BRANCH  73  74
ATOM     74  C4  IDS d 502     -11.951  43.297 171.045  0.00  0.00     0.195 C 
ATOM     75  C3  IDS d 502     -10.815  43.285 170.005  0.00  0.00     0.185 C 
ATOM     76  C2  IDS d 502      -9.620  44.111 170.490  0.00  0.00     0.231 C 
ATOM     77  C1  IDS d 502      -9.230  43.761 171.923  0.00  0.00     0.291 C 
ATOM     78  O5  IDS d 502     -10.343  43.801 172.780  0.00  0.00    -0.340 OA
ATOM     79  C5  IDS d 502     -11.399  42.932 172.421  0.00  0.00     0.257 C 
BRANCH  75  80
ATOM     80  O3  IDS d 502     -10.379  41.953 169.816  0.00  0.00    -0.390 OA
ATOM     81  H   IDS d 502     -10.095  41.833 168.897  0.00  0.00     0.210 HD
ENDBRANCH  75  80
BRANCH  76  82
ATOM     82  O2  IDS d 502     -10.006  45.459 170.461  0.00  0.00    -0.244 OA
BRANCH  82  83
ATOM     83  S   IDS d 502      -9.150  46.691 170.018  0.00  0.00     0.252 S 
ATOM     84  O3S IDS d 502      -9.925  47.838 170.413  0.00  0.00    -0.572 OA
ATOM     85  O2S IDS d 502      -8.986  46.563 168.589  0.00  0.00    -0.572 OA
ATOM     86  O1S IDS d 502      -7.899  46.616 170.720  0.00  0.00    -0.572 OA
ENDBRANCH  82  83
ENDBRANCH  76  82
BRANCH  77  87
ATOM     87  O1  IDS d 502      -8.607  42.504 171.906  0.00  0.00    -0.368 OA
ATOM     88  H   IDS d 502      -7.735  42.581 171.488  0.00  0.00     0.212 HD
ENDBRANCH  77  87
BRANCH  79  89
ATOM     89  C6  IDS d 502     -12.450  42.878 173.521  0.00  0.00     0.206 C 
ATOM     90  O61 IDS d 502     -12.423  43.648 174.451  0.00  0.00    -0.646 OA
ATOM     91  O62 IDS d 502     -13.348  42.060 173.490  0.00  0.00    -0.646 OA
ENDBRANCH  79  89
ENDBRANCH  73  74
ENDBRANCH  64  73
BRANCH  65  92
ATOM     92  N   SGN d 503     -12.547  47.007 169.604  0.00  0.00    -0.210 NA
ATOM     93  H   SGN d 503     -11.913  46.312 169.211  0.00  0.00     0.140 HD
BRANCH  92  94
ATOM     94  S1  SGN d 503     -12.659  48.226 168.531  0.00  0.00     0.156 S 
BRANCH  94  95
ATOM     95  O2S SGN d 503     -13.924  48.085 167.811  0.00  0.00    -0.296 OA
ATOM     96  H   SGN d 503     -13.879  48.584 166.980  0.00  0.00     0.231 HD
ENDBRANCH  94  95
BRANCH  94  97
ATOM     97  O1S SGN d 503     -11.513  48.096 167.651  0.00  0.00    -0.296 OA
ATOM     98  H   SGN d 503     -11.586  48.740 166.929  0.00  0.00     0.231 HD
ENDBRANCH  94  97
BRANCH  94  99
ATOM     99  O3S SGN d 503     -12.588  49.406 169.363  0.00  0.00    -0.296 OA
ATOM    100  H   SGN d 503     -13.050  50.138 168.925  0.00  0.00     0.231 HD
ENDBRANCH  94  99
ENDBRANCH  92  94
ENDBRANCH  65  92
BRANCH  66 101
ATOM    101  O3  SGN d 503     -14.798  48.252 170.963  0.00  0.00    -0.391 OA
ATOM    102  H   SGN d 503     -15.760  48.322 171.065  0.00  0.00     0.210 HD
ENDBRANCH  66 101
ENDBRANCH  60  61
ENDBRANCH   3  60
TORSDOF 40
ENDMDL
MODEL 37
REMARK VINA RESULT:      -3.0      2.842     12.059
REMARK WARNING: 32 MAX_TORS EXCEEDED!!!
REMARK  40 active torsions:
REMARK  status: ('A' for Active; 'I' for Inactive)
REMARK    1 I    between atoms: C6_1  and  C5_8 
REMARK    2 I    between atoms: C6_1  and  O6_57 
REMARK    3 I    between atoms: O4_2  and  C4_49 
REMARK    4 I    between atoms: O6_3  and  C6_7 
REMARK    5 I    between atoms: O6_3  and  S2_58 
REMARK    6 I    between atoms: S_4  and  O2_6 
REMARK    7 I    between atoms: O3_5  and  C3_81 
REMARK    8 I    between atoms: O2_6  and  C2_11 
REMARK    9 I    between atoms: C6_7  and  C5_54 
REMARK   10 I    between atoms: O4_9  and  C4_32 
REMARK   11 I    between atoms: O4_9  and  C1_39 
REMARK   12 I    between atoms: O3_12  and  C3_18 
REMARK   13 I    between atoms: N_13  and  C2_52 
REMARK   14 I    between atoms: N_13  and  S1_45 
REMARK   15 I    between atoms: O3_17  and  C3_83 
REMARK   16 I    between atoms: C4_20  and  O4_44 
REMARK   17 I    between atoms: N_21  and  C2_66 
REMARK   18 I    between atoms: N_21  and  S1_53 
REMARK   19 I    between atoms: O3_22  and  C3_65 
REMARK   20 I    between atoms: C4_23  and  O4_74 
REMARK   21 I    between atoms: C1_25  and  O1_72 
REMARK   22 I    between atoms: C2_28  and  O2_69 
REMARK   23 I    between atoms: C4_33  and  O4_61 
REMARK   24 I    between atoms: O2S_34  and  S1_45 
REMARK   25 I    between atoms: C6_37  and  C5_47 
REMARK   26 I    between atoms: O2_38  and  C2_77 
REMARK   27 I    between atoms: O2_38  and  S_50 
REMARK   28 I    between atoms: O3S_40  and  S1_53 
REMARK   29 I    between atoms: O1S_42  and  S1_45 
REMARK   30 I    between atoms: O1S_43  and  S1_53 
REMARK   31 I    between atoms: O4_44  and  C1_46 
REMARK   32 I    between atoms: S1_45  and  O3S_60 
REMARK   33 I    between atoms: C6_48  and  C5_84 
REMARK   34 I    between atoms: C6_51  and  C5_87 
REMARK   35 I    between atoms: S1_53  and  O2S_55 
REMARK   36 I    between atoms: C1_56  and  O4_74 
REMARK   37 I    between atoms: O6_57  and  S2_82 
REMARK   38 I    between atoms: O4_61  and  C1_70 
REMARK   39 I    between atoms: C3_63  and  O3_79 
REMARK   40 I    between atoms: O2_69  and  S_76 
ROOT
ATOM      1  C3  IDS d 504     -18.243  50.142 175.180  0.00  0.00     0.185 C 
ATOM      2  C4  IDS d 504     -17.666  51.382 174.513  0.00  0.00     0.195 C 
ATOM      3  C1  IDS d 504     -17.902  48.930 172.938  0.00  0.00     0.294 C 
ATOM      4  O5  IDS d 504     -17.407  50.179 172.444  0.00  0.00    -0.340 OA
ATOM      5  C2  IDS d 504     -18.827  49.128 174.122  0.00  0.00     0.231 C 
ATOM      6  C5  IDS d 504     -16.714  50.947 173.400  0.00  0.00     0.257 C 
ENDROOT
BRANCH   2   7
ATOM      7  O4  IDS d 504     -18.723  52.161 173.975  0.00  0.00    -0.348 OA
BRANCH   7   8
ATOM      8  C1  SGN d 505     -19.218  53.132 174.857  0.00  0.00     0.282 C 
ATOM      9  O5  SGN d 505     -18.272  54.146 175.047  0.00  0.00    -0.349 OA
ATOM     10  C5  SGN d 505     -17.990  54.874 173.891  0.00  0.00     0.181 C 
ATOM     11  C4  SGN d 505     -19.203  55.620 173.437  0.00  0.00     0.186 C 
ATOM     12  C3  SGN d 505     -20.269  54.549 173.064  0.00  0.00     0.173 C 
ATOM     13  C2  SGN d 505     -20.513  53.737 174.351  0.00  0.00     0.157 C 
BRANCH  10  14
ATOM     14  C6  SGN d 505     -16.849  55.777 174.233  0.00  0.00     0.227 C 
BRANCH  14  15
ATOM     15  O6  SGN d 505     -16.095  55.073 175.160  0.00  0.00    -0.254 OA
BRANCH  15  16
ATOM     16  S2  SGN d 505     -15.409  55.627 176.400  0.00  0.00     0.251 S 
ATOM     17  O5S SGN d 505     -15.016  54.458 177.148  0.00  0.00    -0.572 OA
ATOM     18  O4S SGN d 505     -16.415  56.440 177.044  0.00  0.00    -0.572 OA
ATOM     19  O6S SGN d 505     -14.266  56.405 175.941  0.00  0.00    -0.572 OA
ENDBRANCH  15  16
ENDBRANCH  14  15
ENDBRANCH  10  14
BRANCH  11  20
ATOM     20  O4  SGN d 505     -18.772  56.446 172.376  0.00  0.00    -0.348 OA
BRANCH  20  21
ATOM     21  C1  IDS d 506     -19.057  57.800 172.294  0.00  0.00     0.294 C 
ATOM     22  C2  IDS d 506     -18.186  58.426 171.195  0.00  0.00     0.231 C 
ATOM     23  C3  IDS d 506     -18.165  59.979 171.236  0.00  0.00     0.185 C 
ATOM     24  C4  IDS d 506     -18.161  60.562 172.665  0.00  0.00     0.189 C 
ATOM     25  C5  IDS d 506     -19.061  59.738 173.591  0.00  0.00     0.256 C 
ATOM     26  O5  IDS d 506     -18.714  58.394 173.521  0.00  0.00    -0.340 OA
BRANCH  22  27
ATOM     27  O2  IDS d 506     -16.846  57.995 171.331  0.00  0.00    -0.244 OA
BRANCH  27  28
ATOM     28  S   IDS d 506     -15.921  57.299 170.242  0.00  0.00     0.252 S 
ATOM     29  O1S IDS d 506     -15.454  56.098 170.864  0.00  0.00    -0.572 OA
ATOM     30  O2S IDS d 506     -16.729  57.004 169.093  0.00  0.00    -0.572 OA
ATOM     31  O3S IDS d 506     -14.864  58.248 169.969  0.00  0.00    -0.572 OA
ENDBRANCH  27  28
ENDBRANCH  22  27
BRANCH  23  32
ATOM     32  O3  IDS d 506     -19.317  60.465 170.551  0.00  0.00    -0.390 OA
ATOM     33  H   IDS d 506     -19.807  61.070 171.132  0.00  0.00     0.210 HD
ENDBRANCH  23  32
BRANCH  24  34
ATOM     34  O4  IDS d 506     -16.832  60.518 173.130  0.00  0.00    -0.390 OA
ATOM     35  H   IDS d 506     -16.349  61.294 172.805  0.00  0.00     0.210 HD
ENDBRANCH  24  34
BRANCH  25  36
ATOM     36  C6  IDS d 506     -19.116  60.169 175.045  0.00  0.00     0.206 C 
ATOM     37  O62 IDS d 506     -20.153  60.149 175.685  0.00  0.00    -0.646 OA
ATOM     38  O61 IDS d 506     -18.097  60.535 175.613  0.00  0.00    -0.646 OA
ENDBRANCH  25  36
ENDBRANCH  20  21
ENDBRANCH  11  20
BRANCH  12  39
ATOM     39  O3  SGN d 505     -21.490  55.172 172.685  0.00  0.00    -0.391 OA
ATOM     40  H   SGN d 505     -22.012  54.558 172.144  0.00  0.00     0.210 HD
ENDBRANCH  12  39
BRANCH  13  41
ATOM     41  N   SGN d 505     -21.541  52.676 174.246  0.00  0.00    -0.210 NA
ATOM     42  H   SGN d 505     -21.178  51.850 174.722  0.00  0.00     0.140 HD
BRANCH  41  43
ATOM     43  S1  SGN d 505     -23.055  53.000 174.887  0.00  0.00     0.156 S 
BRANCH  43  44
ATOM     44  O3S SGN d 505     -23.613  51.755 175.280  0.00  0.00    -0.296 OA
ATOM     45  H   SGN d 505     -23.332  51.546 176.185  0.00  0.00     0.231 HD
ENDBRANCH  43  44
BRANCH  43  46
ATOM     46  O1S SGN d 505     -22.875  53.914 175.995  0.00  0.00    -0.296 OA
ATOM     47  H   SGN d 505     -22.179  53.579 176.581  0.00  0.00     0.231 HD
ENDBRANCH  43  46
BRANCH  43  48
ATOM     48  O2S SGN d 505     -23.801  53.591 173.800  0.00  0.00    -0.296 OA
ATOM     49  H   SGN d 505     -23.788  54.557 173.887  0.00  0.00     0.231 HD
ENDBRANCH  43  48
ENDBRANCH  41  43
ENDBRANCH  13  41
ENDBRANCH   7   8
ENDBRANCH   2   7
BRANCH   1  50
ATOM     50  O3  IDS d 504     -17.184  49.524 175.900  0.00  0.00    -0.390 OA
ATOM     51  H   IDS d 504     -17.121  49.919 176.784  0.00  0.00     0.210 HD
ENDBRANCH   1  50
BRANCH   6  52
ATOM     52  C6  IDS d 504     -15.945  52.090 172.716  0.00  0.00     0.206 C 
ATOM     53  O62 IDS d 504     -16.474  52.780 171.842  0.00  0.00    -0.646 OA
ATOM     54  O61 IDS d 504     -14.781  52.331 173.010  0.00  0.00    -0.646 OA
ENDBRANCH   6  52
BRANCH   5  55
ATOM     55  O2  IDS d 504     -20.087  49.586 173.635  0.00  0.00    -0.244 OA
BRANCH  55  56
ATOM     56  S   IDS d 504     -21.474  49.248 174.212  0.00  0.00     0.252 S 
ATOM     57  O2S IDS d 504     -21.512  49.733 175.560  0.00  0.00    -0.572 OA
ATOM     58  O3S IDS d 504     -22.369  49.888 173.323  0.00  0.00    -0.572 OA
ATOM     59  O1S IDS d 504     -21.595  47.837 174.160  0.00  0.00    -0.572 OA
ENDBRANCH  55  56
ENDBRANCH   5  55
BRANCH   3  60
ATOM     60  O4  SGN d 503     -16.875  48.062 173.323  0.00  0.00    -0.348 OA
BRANCH  60  61
ATOM     61  C4  SGN d 503     -16.457  47.197 172.317  0.00  0.00     0.186 C 
ATOM     62  C5  SGN d 503     -16.034  45.863 172.957  0.00  0.00     0.181 C 
ATOM     63  O5  SGN d 503     -15.507  44.996 172.002  0.00  0.00    -0.349 OA
ATOM     64  C1  SGN d 503     -14.349  45.492 171.377  0.00  0.00     0.282 C 
ATOM     65  C2  SGN d 503     -14.681  46.803 170.649  0.00  0.00     0.157 C 
ATOM     66  C3  SGN d 503     -15.273  47.833 171.594  0.00  0.00     0.173 C 
BRANCH  62  67
ATOM     67  C6  SGN d 503     -17.161  45.092 173.589  0.00  0.00     0.227 C 
BRANCH  67  68
ATOM     68  O6  SGN d 503     -16.862  44.950 174.960  0.00  0.00    -0.254 OA
BRANCH  68  69
ATOM     69  S2  SGN d 503     -17.561  45.709 176.120  0.00  0.00     0.251 S 
ATOM     70  O6S SGN d 503     -16.623  46.696 176.488  0.00  0.00    -0.572 OA
ATOM     71  O4S SGN d 503     -18.740  46.321 175.607  0.00  0.00    -0.572 OA
ATOM     72  O5S SGN d 503     -17.863  44.724 177.154  0.00  0.00    -0.572 OA
ENDBRANCH  68  69
ENDBRANCH  67  68
ENDBRANCH  62  67
BRANCH  64  73
ATOM     73  O4  IDS d 502     -13.309  45.680 172.297  0.00  0.00    -0.348 OA
BRANCH  73  74
ATOM     74  C4  IDS d 502     -12.621  44.509 172.654  0.00  0.00     0.195 C 
ATOM     75  C3  IDS d 502     -11.433  44.296 171.697  0.00  0.00     0.185 C 
ATOM     76  C2  IDS d 502     -10.342  45.344 171.935  0.00  0.00     0.231 C 
ATOM     77  C1  IDS d 502     -10.002  45.485 173.416  0.00  0.00     0.291 C 
ATOM     78  O5  IDS d 502     -11.160  45.672 174.191  0.00  0.00    -0.340 OA
ATOM     79  C5  IDS d 502     -12.115  44.634 174.090  0.00  0.00     0.257 C 
BRANCH  75  80
ATOM     80  O3  IDS d 502     -10.873  43.019 171.937  0.00  0.00    -0.390 OA
ATOM     81  H   IDS d 502     -10.904  42.494 171.122  0.00  0.00     0.210 HD
ENDBRANCH  75  80
BRANCH  76  82
ATOM     82  O2  IDS d 502     -10.842  46.575 171.485  0.00  0.00    -0.244 OA
BRANCH  82  83
ATOM     83  S   IDS d 502     -10.092  47.667 170.654  0.00  0.00     0.252 S 
ATOM     84  O3S IDS d 502     -10.996  48.787 170.618  0.00  0.00    -0.572 OA
ATOM     85  O2S IDS d 502      -9.843  47.077 169.360  0.00  0.00    -0.572 OA
ATOM     86  O1S IDS d 502      -8.877  47.976 171.356  0.00  0.00    -0.572 OA
ENDBRANCH  82  83
ENDBRANCH  76  82
BRANCH  77  87
ATOM     87  O1  IDS d 502      -9.272  44.351 173.801  0.00  0.00    -0.368 OA
ATOM     88  H   IDS d 502      -9.830  43.780 174.353  0.00  0.00     0.212 HD
ENDBRANCH  77  87
BRANCH  79  89
ATOM     89  C6  IDS d 502     -13.215  44.812 175.126  0.00  0.00     0.206 C 
ATOM     90  O61 IDS d 502     -13.444  45.890 175.618  0.00  0.00    -0.646 OA
ATOM     91  O62 IDS d 502     -13.896  43.871 175.484  0.00  0.00    -0.646 OA
ENDBRANCH  79  89
ENDBRANCH  73  74
ENDBRANCH  64  73
BRANCH  65  92
ATOM     92  N   SGN d 503     -13.505  47.320 169.971  0.00  0.00    -0.210 NA
ATOM     93  H   SGN d 503     -12.761  46.631 170.083  0.00  0.00     0.140 HD
BRANCH  92  94
ATOM     94  S1  SGN d 503     -13.634  47.643 168.381  0.00  0.00     0.156 S 
BRANCH  94  95
ATOM     95  O2S SGN d 503     -14.752  48.566 168.193  0.00  0.00    -0.296 OA
ATOM     96  H   SGN d 503     -15.145  48.422 167.317  0.00  0.00     0.231 HD
ENDBRANCH  94  95
BRANCH  94  97
ATOM     97  O1S SGN d 503     -13.862  46.369 167.726  0.00  0.00    -0.296 OA
ATOM     98  H   SGN d 503     -14.691  45.984 168.050  0.00  0.00     0.231 HD
ENDBRANCH  94  97
BRANCH  94  99
ATOM     99  O3S SGN d 503     -12.345  48.211 168.054  0.00  0.00    -0.296 OA
ATOM    100  H   SGN d 503     -12.420  48.733 167.240  0.00  0.00     0.231 HD
ENDBRANCH  94  99
ENDBRANCH  92  94
ENDBRANCH  65  92
BRANCH  66 101
ATOM    101  O3  SGN d 503     -15.750  48.943 170.858  0.00  0.00    -0.391 OA
ATOM    102  H   SGN d 503     -16.058  49.629 171.470  0.00  0.00     0.210 HD
ENDBRANCH  66 101
ENDBRANCH  60  61
ENDBRANCH   3  60
TORSDOF 40
ENDMDL
MODEL 38
REMARK VINA RESULT:      -2.9      2.817     13.088
REMARK WARNING: 32 MAX_TORS EXCEEDED!!!
REMARK  40 active torsions:
REMARK  status: ('A' for Active; 'I' for Inactive)
REMARK    1 I    between atoms: C6_1  and  C5_8 
REMARK    2 I    between atoms: C6_1  and  O6_57 
REMARK    3 I    between atoms: O4_2  and  C4_49 
REMARK    4 I    between atoms: O6_3  and  C6_7 
REMARK    5 I    between atoms: O6_3  and  S2_58 
REMARK    6 I    between atoms: S_4  and  O2_6 
REMARK    7 I    between atoms: O3_5  and  C3_81 
REMARK    8 I    between atoms: O2_6  and  C2_11 
REMARK    9 I    between atoms: C6_7  and  C5_54 
REMARK   10 I    between atoms: O4_9  and  C4_32 
REMARK   11 I    between atoms: O4_9  and  C1_39 
REMARK   12 I    between atoms: O3_12  and  C3_18 
REMARK   13 I    between atoms: N_13  and  C2_52 
REMARK   14 I    between atoms: N_13  and  S1_45 
REMARK   15 I    between atoms: O3_17  and  C3_83 
REMARK   16 I    between atoms: C4_20  and  O4_44 
REMARK   17 I    between atoms: N_21  and  C2_66 
REMARK   18 I    between atoms: N_21  and  S1_53 
REMARK   19 I    between atoms: O3_22  and  C3_65 
REMARK   20 I    between atoms: C4_23  and  O4_74 
REMARK   21 I    between atoms: C1_25  and  O1_72 
REMARK   22 I    between atoms: C2_28  and  O2_69 
REMARK   23 I    between atoms: C4_33  and  O4_61 
REMARK   24 I    between atoms: O2S_34  and  S1_45 
REMARK   25 I    between atoms: C6_37  and  C5_47 
REMARK   26 I    between atoms: O2_38  and  C2_77 
REMARK   27 I    between atoms: O2_38  and  S_50 
REMARK   28 I    between atoms: O3S_40  and  S1_53 
REMARK   29 I    between atoms: O1S_42  and  S1_45 
REMARK   30 I    between atoms: O1S_43  and  S1_53 
REMARK   31 I    between atoms: O4_44  and  C1_46 
REMARK   32 I    between atoms: S1_45  and  O3S_60 
REMARK   33 I    between atoms: C6_48  and  C5_84 
REMARK   34 I    between atoms: C6_51  and  C5_87 
REMARK   35 I    between atoms: S1_53  and  O2S_55 
REMARK   36 I    between atoms: C1_56  and  O4_74 
REMARK   37 I    between atoms: O6_57  and  S2_82 
REMARK   38 I    between atoms: O4_61  and  C1_70 
REMARK   39 I    between atoms: C3_63  and  O3_79 
REMARK   40 I    between atoms: O2_69  and  S_76 
ROOT
ATOM      1  C3  IDS d 504     -15.457  48.654 176.528  0.00  0.00     0.185 C 
ATOM      2  C4  IDS d 504     -15.314  50.148 176.282  0.00  0.00     0.195 C 
ATOM      3  C1  IDS d 504     -14.529  48.300 174.157  0.00  0.00     0.294 C 
ATOM      4  O5  IDS d 504     -14.480  49.728 174.063  0.00  0.00    -0.340 OA
ATOM      5  C2  IDS d 504     -15.552  47.845 175.178  0.00  0.00     0.231 C 
ATOM      6  C5  IDS d 504     -14.186  50.379 175.278  0.00  0.00     0.257 C 
ENDROOT
BRANCH   2   7
ATOM      7  O4  IDS d 504     -16.536  50.658 175.769  0.00  0.00    -0.348 OA
BRANCH   7   8
ATOM      8  C1  SGN d 505     -17.468  51.000 176.760  0.00  0.00     0.282 C 
ATOM      9  O5  SGN d 505     -17.362  52.358 177.082  0.00  0.00    -0.349 OA
ATOM     10  C5  SGN d 505     -17.685  53.212 176.027  0.00  0.00     0.181 C 
ATOM     11  C4  SGN d 505     -19.124  53.060 175.657  0.00  0.00     0.186 C 
ATOM     12  C3  SGN d 505     -19.301  51.601 175.145  0.00  0.00     0.173 C 
ATOM     13  C2  SGN d 505     -18.886  50.694 176.320  0.00  0.00     0.157 C 
BRANCH  10  14
ATOM     14  C6  SGN d 505     -17.347  54.592 176.488  0.00  0.00     0.227 C 
BRANCH  14  15
ATOM     15  O6  SGN d 505     -16.420  55.065 175.571  0.00  0.00    -0.254 OA
BRANCH  15  16
ATOM     16  S2  SGN d 505     -15.385  56.158 175.787  0.00  0.00     0.251 S 
ATOM     17  O5S SGN d 505     -16.107  57.388 175.575  0.00  0.00    -0.572 OA
ATOM     18  O4S SGN d 505     -14.357  55.891 174.807  0.00  0.00    -0.572 OA
ATOM     19  O6S SGN d 505     -14.905  56.023 177.156  0.00  0.00    -0.572 OA
ENDBRANCH  15  16
ENDBRANCH  14  15
ENDBRANCH  10  14
BRANCH  11  20
ATOM     20  O4  SGN d 505     -19.387  54.074 174.710  0.00  0.00    -0.348 OA
BRANCH  20  21
ATOM     21  C1  IDS d 506     -20.620  54.694 174.571  0.00  0.00     0.294 C 
ATOM     22  C2  IDS d 506     -20.660  55.424 173.221  0.00  0.00     0.231 C 
ATOM     23  C3  IDS d 506     -21.843  56.424 173.097  0.00  0.00     0.185 C 
ATOM     24  C4  IDS d 506     -22.156  57.180 174.406  0.00  0.00     0.189 C 
ATOM     25  C5  IDS d 506     -21.997  56.256 175.618  0.00  0.00     0.256 C 
ATOM     26  O5  IDS d 506     -20.748  55.648 175.594  0.00  0.00    -0.340 OA
BRANCH  22  27
ATOM     27  O2  IDS d 506     -19.472  56.169 173.036  0.00  0.00    -0.244 OA
BRANCH  27  28
ATOM     28  S   IDS d 506     -18.535  56.225 171.754  0.00  0.00     0.252 S 
ATOM     29  O1S IDS d 506     -18.636  54.926 171.163  0.00  0.00    -0.572 OA
ATOM     30  O2S IDS d 506     -19.047  57.234 170.870  0.00  0.00    -0.572 OA
ATOM     31  O3S IDS d 506     -17.211  56.522 172.255  0.00  0.00    -0.572 OA
ENDBRANCH  27  28
ENDBRANCH  22  27
BRANCH  23  32
ATOM     32  O3  IDS d 506     -23.006  55.702 172.701  0.00  0.00    -0.390 OA
ATOM     33  H   IDS d 506     -23.671  55.747 173.407  0.00  0.00     0.210 HD
ENDBRANCH  23  32
BRANCH  24  34
ATOM     34  O4  IDS d 506     -21.244  58.249 174.501  0.00  0.00    -0.390 OA
ATOM     35  H   IDS d 506     -20.792  58.365 173.650  0.00  0.00     0.210 HD
ENDBRANCH  24  34
BRANCH  25  36
ATOM     36  C6  IDS d 506     -22.228  56.879 176.982  0.00  0.00     0.206 C 
ATOM     37  O62 IDS d 506     -22.976  56.377 177.804  0.00  0.00    -0.646 OA
ATOM     38  O61 IDS d 506     -21.644  57.908 177.291  0.00  0.00    -0.646 OA
ENDBRANCH  25  36
ENDBRANCH  20  21
ENDBRANCH  11  20
BRANCH  12  39
ATOM     39  O3  SGN d 505     -20.664  51.343 174.835  0.00  0.00    -0.391 OA
ATOM     40  H   SGN d 505     -20.717  50.631 174.177  0.00  0.00     0.210 HD
ENDBRANCH  12  39
BRANCH  13  41
ATOM     41  N   SGN d 505     -19.020  49.239 176.076  0.00  0.00    -0.210 NA
ATOM     42  H   SGN d 505     -18.164  48.794 176.406  0.00  0.00     0.140 HD
BRANCH  41  43
ATOM     43  S1  SGN d 505     -20.308  48.449 176.800  0.00  0.00     0.156 S 
BRANCH  43  44
ATOM     44  O3S SGN d 505     -19.767  47.629 177.825  0.00  0.00    -0.296 OA
ATOM     45  H   SGN d 505     -19.167  48.155 178.376  0.00  0.00     0.231 HD
ENDBRANCH  43  44
BRANCH  43  46
ATOM     46  O1S SGN d 505     -21.215  49.459 177.303  0.00  0.00    -0.296 OA
ATOM     47  H   SGN d 505     -22.084  49.061 177.466  0.00  0.00     0.231 HD
ENDBRANCH  43  46
BRANCH  43  48
ATOM     48  O2S SGN d 505     -20.897  47.655 175.747  0.00  0.00    -0.296 OA
ATOM     49  H   SGN d 505     -20.342  46.878 175.579  0.00  0.00     0.231 HD
ENDBRANCH  43  48
ENDBRANCH  41  43
ENDBRANCH  13  41
ENDBRANCH   7   8
ENDBRANCH   2   7
BRANCH   1  50
ATOM     50  O3  IDS d 504     -14.306  48.239 177.253  0.00  0.00    -0.390 OA
ATOM     51  H   IDS d 504     -14.096  47.319 177.026  0.00  0.00     0.210 HD
ENDBRANCH   1  50
BRANCH   6  52
ATOM     52  C6  IDS d 504     -13.830  51.854 175.025  0.00  0.00     0.206 C 
ATOM     53  O62 IDS d 504     -13.301  52.209 173.969  0.00  0.00    -0.646 OA
ATOM     54  O61 IDS d 504     -14.046  52.708 175.874  0.00  0.00    -0.646 OA
ENDBRANCH   6  52
BRANCH   5  55
ATOM     55  O2  IDS d 504     -16.850  47.985 174.603  0.00  0.00    -0.244 OA
BRANCH  55  56
ATOM     56  S   IDS d 504     -17.800  46.846 174.190  0.00  0.00     0.252 S 
ATOM     57  O2S IDS d 504     -18.912  47.437 173.504  0.00  0.00    -0.572 OA
ATOM     58  O3S IDS d 504     -16.987  46.006 173.393  0.00  0.00    -0.572 OA
ATOM     59  O1S IDS d 504     -18.205  46.208 175.389  0.00  0.00    -0.572 OA
ENDBRANCH  55  56
ENDBRANCH   5  55
BRANCH   3  60
ATOM     60  O4  SGN d 503     -13.292  47.743 174.496  0.00  0.00    -0.348 OA
BRANCH  60  61
ATOM     61  C4  SGN d 503     -12.439  47.555 173.414  0.00  0.00     0.186 C 
ATOM     62  C5  SGN d 503     -12.231  46.045 173.206  0.00  0.00     0.181 C 
ATOM     63  O5  SGN d 503     -11.300  45.802 172.199  0.00  0.00    -0.349 OA
ATOM     64  C1  SGN d 503     -10.023  46.317 172.483  0.00  0.00     0.282 C 
ATOM     65  C2  SGN d 503     -10.110  47.841 172.647  0.00  0.00     0.157 C 
ATOM     66  C3  SGN d 503     -11.106  48.232 173.724  0.00  0.00     0.173 C 
BRANCH  62  67
ATOM     67  C6  SGN d 503     -13.465  45.301 172.770  0.00  0.00     0.227 C 
BRANCH  67  68
ATOM     68  O6  SGN d 503     -13.986  45.968 171.641  0.00  0.00    -0.254 OA
BRANCH  68  69
ATOM     69  S2  SGN d 503     -14.396  45.295 170.304  0.00  0.00     0.251 S 
ATOM     70  O6S SGN d 503     -15.738  45.692 170.126  0.00  0.00    -0.572 OA
ATOM     71  O4S SGN d 503     -13.584  45.834 169.266  0.00  0.00    -0.572 OA
ATOM     72  O5S SGN d 503     -14.191  43.859 170.468  0.00  0.00    -0.572 OA
ENDBRANCH  68  69
ENDBRANCH  67  68
ENDBRANCH  62  67
BRANCH  64  73
ATOM     73  O4  IDS d 502      -9.472  45.721 173.625  0.00  0.00    -0.348 OA
BRANCH  73  74
ATOM     74  C4  IDS d 502      -8.837  44.489 173.397  0.00  0.00     0.195 C 
ATOM     75  C3  IDS d 502      -7.331  44.718 173.167  0.00  0.00     0.185 C 
ATOM     76  C2  IDS d 502      -6.639  45.155 174.461  0.00  0.00     0.231 C 
ATOM     77  C1  IDS d 502      -7.015  44.258 175.637  0.00  0.00     0.291 C 
ATOM     78  O5  IDS d 502      -8.409  44.119 175.748  0.00  0.00    -0.340 OA
ATOM     79  C5  IDS d 502      -9.044  43.579 174.606  0.00  0.00     0.257 C 
BRANCH  75  80
ATOM     80  O3  IDS d 502      -6.741  43.505 172.741  0.00  0.00    -0.390 OA
ATOM     81  H   IDS d 502      -6.169  43.161 173.444  0.00  0.00     0.210 HD
ENDBRANCH  75  80
BRANCH  76  82
ATOM     82  O2  IDS d 502      -7.076  46.456 174.749  0.00  0.00    -0.244 OA
BRANCH  82  83
ATOM     83  S   IDS d 502      -6.202  47.740 174.936  0.00  0.00     0.252 S 
ATOM     84  O3S IDS d 502      -7.138  48.771 175.303  0.00  0.00    -0.572 OA
ATOM     85  O2S IDS d 502      -5.555  47.966 173.665  0.00  0.00    -0.572 OA
ATOM     86  O1S IDS d 502      -5.261  47.466 175.987  0.00  0.00    -0.572 OA
ENDBRANCH  82  83
ENDBRANCH  76  82
BRANCH  77  87
ATOM     87  O1  IDS d 502      -6.361  43.028 175.469  0.00  0.00    -0.368 OA
ATOM     88  H   IDS d 502      -6.838  42.496 174.812  0.00  0.00     0.212 HD
ENDBRANCH  77  87
BRANCH  79  89
ATOM     89  C6  IDS d 502     -10.501  43.256 174.902  0.00  0.00     0.206 C 
ATOM     90  O61 IDS d 502     -10.994  43.510 175.974  0.00  0.00    -0.646 OA
ATOM     91  O62 IDS d 502     -11.211  42.738 174.062  0.00  0.00    -0.646 OA
ENDBRANCH  79  89
ENDBRANCH  73  74
ENDBRANCH  64  73
BRANCH  65  92
ATOM     92  N   SGN d 503      -8.796  48.400 172.914  0.00  0.00    -0.210 NA
ATOM     93  H   SGN d 503      -8.143  47.620 172.992  0.00  0.00     0.140 HD
BRANCH  92  94
ATOM     94  S1  SGN d 503      -8.184  49.440 171.822  0.00  0.00     0.156 S 
BRANCH  94  95
ATOM     95  O2S SGN d 503      -7.574  48.663 170.744  0.00  0.00    -0.296 OA
ATOM     96  H   SGN d 503      -7.904  48.982 169.889  0.00  0.00     0.231 HD
ENDBRANCH  94  95
BRANCH  94  97
ATOM     97  O1S SGN d 503      -7.209  50.245 172.532  0.00  0.00    -0.296 OA
ATOM     98  H   SGN d 503      -6.577  49.663 172.983  0.00  0.00     0.231 HD
ENDBRANCH  94  97
BRANCH  94  99
ATOM     99  O3S SGN d 503      -9.339  50.205 171.410  0.00  0.00    -0.296 OA
ATOM    100  H   SGN d 503      -9.074  50.853 170.739  0.00  0.00     0.231 HD
ENDBRANCH  94  99
ENDBRANCH  92  94
ENDBRANCH  65  92
BRANCH  66 101
ATOM    101  O3  SGN d 503     -11.309  49.632 173.708  0.00  0.00    -0.391 OA
ATOM    102  H   SGN d 503     -11.950  49.874 174.393  0.00  0.00     0.210 HD
ENDBRANCH  66 101
ENDBRANCH  60  61
ENDBRANCH   3  60
TORSDOF 40
ENDMDL
MODEL 39
REMARK VINA RESULT:      -2.8      4.069      5.787
REMARK WARNING: 32 MAX_TORS EXCEEDED!!!
REMARK  40 active torsions:
REMARK  status: ('A' for Active; 'I' for Inactive)
REMARK    1 I    between atoms: C6_1  and  C5_8 
REMARK    2 I    between atoms: C6_1  and  O6_57 
REMARK    3 I    between atoms: O4_2  and  C4_49 
REMARK    4 I    between atoms: O6_3  and  C6_7 
REMARK    5 I    between atoms: O6_3  and  S2_58 
REMARK    6 I    between atoms: S_4  and  O2_6 
REMARK    7 I    between atoms: O3_5  and  C3_81 
REMARK    8 I    between atoms: O2_6  and  C2_11 
REMARK    9 I    between atoms: C6_7  and  C5_54 
REMARK   10 I    between atoms: O4_9  and  C4_32 
REMARK   11 I    between atoms: O4_9  and  C1_39 
REMARK   12 I    between atoms: O3_12  and  C3_18 
REMARK   13 I    between atoms: N_13  and  C2_52 
REMARK   14 I    between atoms: N_13  and  S1_45 
REMARK   15 I    between atoms: O3_17  and  C3_83 
REMARK   16 I    between atoms: C4_20  and  O4_44 
REMARK   17 I    between atoms: N_21  and  C2_66 
REMARK   18 I    between atoms: N_21  and  S1_53 
REMARK   19 I    between atoms: O3_22  and  C3_65 
REMARK   20 I    between atoms: C4_23  and  O4_74 
REMARK   21 I    between atoms: C1_25  and  O1_72 
REMARK   22 I    between atoms: C2_28  and  O2_69 
REMARK   23 I    between atoms: C4_33  and  O4_61 
REMARK   24 I    between atoms: O2S_34  and  S1_45 
REMARK   25 I    between atoms: C6_37  and  C5_47 
REMARK   26 I    between atoms: O2_38  and  C2_77 
REMARK   27 I    between atoms: O2_38  and  S_50 
REMARK   28 I    between atoms: O3S_40  and  S1_53 
REMARK   29 I    between atoms: O1S_42  and  S1_45 
REMARK   30 I    between atoms: O1S_43  and  S1_53 
REMARK   31 I    between atoms: O4_44  and  C1_46 
REMARK   32 I    between atoms: S1_45  and  O3S_60 
REMARK   33 I    between atoms: C6_48  and  C5_84 
REMARK   34 I    between atoms: C6_51  and  C5_87 
REMARK   35 I    between atoms: S1_53  and  O2S_55 
REMARK   36 I    between atoms: C1_56  and  O4_74 
REMARK   37 I    between atoms: O6_57  and  S2_82 
REMARK   38 I    between atoms: O4_61  and  C1_70 
REMARK   39 I    between atoms: C3_63  and  O3_79 
REMARK   40 I    between atoms: O2_69  and  S_76 
ROOT
ATOM      1  C3  IDS d 504     -14.475  46.589 175.512  0.00  0.00     0.185 C 
ATOM      2  C4  IDS d 504     -13.830  47.072 174.221  0.00  0.00     0.195 C 
ATOM      3  C1  IDS d 504     -16.104  48.566 175.292  0.00  0.00     0.294 C 
ATOM      4  O5  IDS d 504     -15.378  48.913 174.108  0.00  0.00    -0.340 OA
ATOM      5  C2  IDS d 504     -15.256  47.747 176.244  0.00  0.00     0.231 C 
ATOM      6  C5  IDS d 504     -14.879  47.808 173.389  0.00  0.00     0.257 C 
ENDROOT
BRANCH   2   7
ATOM      7  O4  IDS d 504     -12.753  47.944 174.532  0.00  0.00    -0.348 OA
BRANCH   7   8
ATOM      8  C1  SGN d 505     -11.653  47.300 175.116  0.00  0.00     0.282 C 
ATOM      9  O5  SGN d 505     -11.110  46.363 174.230  0.00  0.00    -0.349 OA
ATOM     10  C5  SGN d 505     -10.576  46.928 173.072  0.00  0.00     0.181 C 
ATOM     11  C4  SGN d 505      -9.407  47.797 173.408  0.00  0.00     0.186 C 
ATOM     12  C3  SGN d 505      -9.956  48.961 174.284  0.00  0.00     0.173 C 
ATOM     13  C2  SGN d 505     -10.580  48.291 175.523  0.00  0.00     0.157 C 
BRANCH  10  14
ATOM     14  C6  SGN d 505     -10.212  45.787 172.178  0.00  0.00     0.227 C 
BRANCH  14  15
ATOM     15  O6  SGN d 505     -11.344  44.987 172.131  0.00  0.00    -0.254 OA
BRANCH  15  16
ATOM     16  S2  SGN d 505     -12.027  44.430 170.891  0.00  0.00     0.251 S 
ATOM     17  O5S SGN d 505     -13.146  43.678 171.402  0.00  0.00    -0.572 OA
ATOM     18  O4S SGN d 505     -11.014  43.630 170.241  0.00  0.00    -0.572 OA
ATOM     19  O6S SGN d 505     -12.443  45.572 170.087  0.00  0.00    -0.572 OA
ENDBRANCH  15  16
ENDBRANCH  14  15
ENDBRANCH  10  14
BRANCH  11  20
ATOM     20  O4  SGN d 505      -8.843  48.179 172.171  0.00  0.00    -0.348 OA
BRANCH  20  21
ATOM     21  C1  IDS d 506      -7.478  48.242 171.938  0.00  0.00     0.294 C 
ATOM     22  C2  IDS d 506      -7.240  48.449 170.435  0.00  0.00     0.231 C 
ATOM     23  C3  IDS d 506      -5.767  48.200 170.006  0.00  0.00     0.185 C 
ATOM     24  C4  IDS d 506      -5.092  47.029 170.752  0.00  0.00     0.189 C 
ATOM     25  C5  IDS d 506      -5.526  47.001 172.222  0.00  0.00     0.256 C 
ATOM     26  O5  IDS d 506      -6.913  47.011 172.310  0.00  0.00    -0.340 OA
BRANCH  22  27
ATOM     27  O2  IDS d 506      -8.041  47.555 169.688  0.00  0.00    -0.244 OA
BRANCH  27  28
ATOM     28  S   IDS d 506      -8.959  47.871 168.430  0.00  0.00     0.252 S 
ATOM     29  O1S IDS d 506      -8.608  49.202 168.040  0.00  0.00    -0.572 OA
ATOM     30  O2S IDS d 506      -8.639  46.929 167.396  0.00  0.00    -0.572 OA
ATOM     31  O3S IDS d 506     -10.320  47.757 168.906  0.00  0.00    -0.572 OA
ENDBRANCH  27  28
ENDBRANCH  22  27
BRANCH  23  32
ATOM     32  O3  IDS d 506      -5.017  49.387 170.252  0.00  0.00    -0.390 OA
ATOM     33  H   IDS d 506      -5.621  50.105 170.498  0.00  0.00     0.210 HD
ENDBRANCH  23  32
BRANCH  24  34
ATOM     34  O4  IDS d 506      -5.494  45.840 170.114  0.00  0.00    -0.390 OA
ATOM     35  H   IDS d 506      -4.936  45.685 169.337  0.00  0.00     0.210 HD
ENDBRANCH  24  34
BRANCH  25  36
ATOM     36  C6  IDS d 506      -4.976  45.869 173.070  0.00  0.00     0.206 C 
ATOM     37  O62 IDS d 506      -3.781  45.730 173.264  0.00  0.00    -0.646 OA
ATOM     38  O61 IDS d 506      -5.740  45.072 173.596  0.00  0.00    -0.646 OA
ENDBRANCH  25  36
ENDBRANCH  20  21
ENDBRANCH  11  20
BRANCH  12  39
ATOM     39  O3  SGN d 505      -8.895  49.804 174.713  0.00  0.00    -0.391 OA
ATOM     40  H   SGN d 505      -8.619  49.548 175.607  0.00  0.00     0.210 HD
ENDBRANCH  12  39
BRANCH  13  41
ATOM     41  N   SGN d 505     -11.131  49.221 176.536  0.00  0.00    -0.210 NA
ATOM     42  H   SGN d 505     -10.444  49.299 177.285  0.00  0.00     0.140 HD
BRANCH  41  43
ATOM     43  S1  SGN d 505     -11.508  50.775 176.036  0.00  0.00     0.156 S 
BRANCH  43  44
ATOM     44  O3S SGN d 505     -12.587  51.220 176.844  0.00  0.00    -0.296 OA
ATOM     45  H   SGN d 505     -12.851  52.112 176.569  0.00  0.00     0.231 HD
ENDBRANCH  43  44
BRANCH  43  46
ATOM     46  O1S SGN d 505     -10.317  51.584 176.187  0.00  0.00    -0.296 OA
ATOM     47  H   SGN d 505      -9.684  51.360 175.487  0.00  0.00     0.231 HD
ENDBRANCH  43  46
BRANCH  43  48
ATOM     48  O2S SGN d 505     -11.908  50.635 174.655  0.00  0.00    -0.296 OA
ATOM     49  H   SGN d 505     -12.745  50.147 174.609  0.00  0.00     0.231 HD
ENDBRANCH  43  48
ENDBRANCH  41  43
ENDBRANCH  13  41
ENDBRANCH   7   8
ENDBRANCH   2   7
BRANCH   1  50
ATOM     50  O3  IDS d 504     -15.380  45.550 175.163  0.00  0.00    -0.390 OA
ATOM     51  H   IDS d 504     -16.020  45.425 175.882  0.00  0.00     0.210 HD
ENDBRANCH   1  50
BRANCH   6  52
ATOM     52  C6  IDS d 504     -14.414  48.243 171.990  0.00  0.00     0.206 C 
ATOM     53  O62 IDS d 504     -14.564  47.508 171.011  0.00  0.00    -0.646 OA
ATOM     54  O61 IDS d 504     -13.866  49.324 171.816  0.00  0.00    -0.646 OA
ENDBRANCH   6  52
BRANCH   5  55
ATOM     55  O2  IDS d 504     -14.344  48.626 176.901  0.00  0.00    -0.244 OA
BRANCH  55  56
ATOM     56  S   IDS d 504     -14.314  48.967 178.401  0.00  0.00     0.252 S 
ATOM     57  O2S IDS d 504     -12.942  48.986 178.815  0.00  0.00    -0.572 OA
ATOM     58  O3S IDS d 504     -14.975  50.217 178.473  0.00  0.00    -0.572 OA
ATOM     59  O1S IDS d 504     -15.043  47.945 179.058  0.00  0.00    -0.572 OA
ENDBRANCH  55  56
ENDBRANCH   5  55
BRANCH   3  60
ATOM     60  O4  SGN d 503     -17.271  47.847 175.014  0.00  0.00    -0.348 OA
BRANCH  60  61
ATOM     61  C4  SGN d 503     -18.224  48.567 174.303  0.00  0.00     0.186 C 
ATOM     62  C5  SGN d 503     -19.343  48.992 175.269  0.00  0.00     0.181 C 
ATOM     63  O5  SGN d 503     -20.379  49.628 174.587  0.00  0.00    -0.349 OA
ATOM     64  C1  SGN d 503     -21.004  48.807 173.632  0.00  0.00     0.282 C 
ATOM     65  C2  SGN d 503     -19.977  48.376 172.575  0.00  0.00     0.157 C 
ATOM     66  C3  SGN d 503     -18.789  47.670 173.204  0.00  0.00     0.173 C 
BRANCH  62  67
ATOM     67  C6  SGN d 503     -18.917  49.982 176.319  0.00  0.00     0.227 C 
BRANCH  67  68
ATOM     68  O6  SGN d 503     -18.465  51.141 175.651  0.00  0.00    -0.254 OA
BRANCH  68  69
ATOM     69  S2  SGN d 503     -18.816  52.601 176.040  0.00  0.00     0.251 S 
ATOM     70  O6S SGN d 503     -18.563  52.650 177.427  0.00  0.00    -0.572 OA
ATOM     71  O4S SGN d 503     -17.928  53.473 175.349  0.00  0.00    -0.572 OA
ATOM     72  O5S SGN d 503     -20.207  52.823 175.656  0.00  0.00    -0.572 OA
ENDBRANCH  68  69
ENDBRANCH  67  68
ENDBRANCH  62  67
BRANCH  64  73
ATOM     73  O4  IDS d 502     -21.607  47.692 174.229  0.00  0.00    -0.348 OA
BRANCH  73  74
ATOM     74  C4  IDS d 502     -22.855  47.944 174.820  0.00  0.00     0.195 C 
ATOM     75  C3  IDS d 502     -23.976  47.657 173.803  0.00  0.00     0.185 C 
ATOM     76  C2  IDS d 502     -24.095  46.155 173.527  0.00  0.00     0.231 C 
ATOM     77  C1  IDS d 502     -24.127  45.341 174.817  0.00  0.00     0.291 C 
ATOM     78  O5  IDS d 502     -23.063  45.688 175.667  0.00  0.00    -0.340 OA
ATOM     79  C5  IDS d 502     -23.027  47.049 176.046  0.00  0.00     0.257 C 
BRANCH  75  80
ATOM     80  O3  IDS d 502     -25.207  48.104 174.338  0.00  0.00    -0.390 OA
ATOM     81  H   IDS d 502     -25.615  48.735 173.725  0.00  0.00     0.210 HD
ENDBRANCH  75  80
BRANCH  76  82
ATOM     82  O2  IDS d 502     -22.958  45.774 172.800  0.00  0.00    -0.244 OA
BRANCH  82  83
ATOM     83  S   IDS d 502     -22.897  44.880 171.518  0.00  0.00     0.252 S 
ATOM     84  O3S IDS d 502     -23.633  45.614 170.522  0.00  0.00    -0.572 OA
ATOM     85  O2S IDS d 502     -23.508  43.623 171.884  0.00  0.00    -0.572 OA
ATOM     86  O1S IDS d 502     -21.512  44.732 171.167  0.00  0.00    -0.572 OA
ENDBRANCH  82  83
ENDBRANCH  76  82
BRANCH  77  87
ATOM     87  O1  IDS d 502     -25.381  45.532 175.416  0.00  0.00    -0.368 OA
ATOM     88  H   IDS d 502     -25.266  45.668 176.370  0.00  0.00     0.212 HD
ENDBRANCH  77  87
BRANCH  79  89
ATOM     89  C6  IDS d 502     -21.988  47.277 177.135  0.00  0.00     0.206 C 
ATOM     90  O61 IDS d 502     -21.893  48.341 177.698  0.00  0.00    -0.646 OA
ATOM     91  O62 IDS d 502     -21.228  46.390 177.471  0.00  0.00    -0.646 OA
ENDBRANCH  79  89
ENDBRANCH  73  74
ENDBRANCH  64  73
BRANCH  65  92
ATOM     92  N   SGN d 503     -20.607  47.549 171.561  0.00  0.00    -0.210 NA
ATOM     93  H   SGN d 503     -21.584  47.431 171.827  0.00  0.00     0.140 HD
BRANCH  92  94
ATOM     94  S1  SGN d 503     -20.584  48.091 170.026  0.00  0.00     0.156 S 
BRANCH  94  95
ATOM     95  O2S SGN d 503     -20.843  49.530 170.046  0.00  0.00    -0.296 OA
ATOM     96  H   SGN d 503     -21.348  49.756 170.844  0.00  0.00     0.231 HD
ENDBRANCH  94  95
BRANCH  94  97
ATOM     97  O1S SGN d 503     -21.621  47.361 169.323  0.00  0.00    -0.296 OA
ATOM     98  H   SGN d 503     -21.549  47.534 168.371  0.00  0.00     0.231 HD
ENDBRANCH  94  97
BRANCH  94  99
ATOM     99  O3S SGN d 503     -19.256  47.743 169.572  0.00  0.00    -0.296 OA
ATOM    100  H   SGN d 503     -19.280  47.553 168.622  0.00  0.00     0.231 HD
ENDBRANCH  94  99
ENDBRANCH  92  94
ENDBRANCH  65  92
BRANCH  66 101
ATOM    101  O3  SGN d 503     -17.778  47.470 172.235  0.00  0.00    -0.391 OA
ATOM    102  H   SGN d 503     -17.534  46.532 172.211  0.00  0.00     0.210 HD
ENDBRANCH  66 101
ENDBRANCH  60  61
ENDBRANCH   3  60
TORSDOF 40
ENDMDL
MODEL 40
REMARK VINA RESULT:      -2.8      2.964      6.879
REMARK WARNING: 32 MAX_TORS EXCEEDED!!!
REMARK  40 active torsions:
REMARK  status: ('A' for Active; 'I' for Inactive)
REMARK    1 I    between atoms: C6_1  and  C5_8 
REMARK    2 I    between atoms: C6_1  and  O6_57 
REMARK    3 I    between atoms: O4_2  and  C4_49 
REMARK    4 I    between atoms: O6_3  and  C6_7 
REMARK    5 I    between atoms: O6_3  and  S2_58 
REMARK    6 I    between atoms: S_4  and  O2_6 
REMARK    7 I    between atoms: O3_5  and  C3_81 
REMARK    8 I    between atoms: O2_6  and  C2_11 
REMARK    9 I    between atoms: C6_7  and  C5_54 
REMARK   10 I    between atoms: O4_9  and  C4_32 
REMARK   11 I    between atoms: O4_9  and  C1_39 
REMARK   12 I    between atoms: O3_12  and  C3_18 
REMARK   13 I    between atoms: N_13  and  C2_52 
REMARK   14 I    between atoms: N_13  and  S1_45 
REMARK   15 I    between atoms: O3_17  and  C3_83 
REMARK   16 I    between atoms: C4_20  and  O4_44 
REMARK   17 I    between atoms: N_21  and  C2_66 
REMARK   18 I    between atoms: N_21  and  S1_53 
REMARK   19 I    between atoms: O3_22  and  C3_65 
REMARK   20 I    between atoms: C4_23  and  O4_74 
REMARK   21 I    between atoms: C1_25  and  O1_72 
REMARK   22 I    between atoms: C2_28  and  O2_69 
REMARK   23 I    between atoms: C4_33  and  O4_61 
REMARK   24 I    between atoms: O2S_34  and  S1_45 
REMARK   25 I    between atoms: C6_37  and  C5_47 
REMARK   26 I    between atoms: O2_38  and  C2_77 
REMARK   27 I    between atoms: O2_38  and  S_50 
REMARK   28 I    between atoms: O3S_40  and  S1_53 
REMARK   29 I    between atoms: O1S_42  and  S1_45 
REMARK   30 I    between atoms: O1S_43  and  S1_53 
REMARK   31 I    between atoms: O4_44  and  C1_46 
REMARK   32 I    between atoms: S1_45  and  O3S_60 
REMARK   33 I    between atoms: C6_48  and  C5_84 
REMARK   34 I    between atoms: C6_51  and  C5_87 
REMARK   35 I    between atoms: S1_53  and  O2S_55 
REMARK   36 I    between atoms: C1_56  and  O4_74 
REMARK   37 I    between atoms: O6_57  and  S2_82 
REMARK   38 I    between atoms: O4_61  and  C1_70 
REMARK   39 I    between atoms: C3_63  and  O3_79 
REMARK   40 I    between atoms: O2_69  and  S_76 
ROOT
ATOM      1  C3  IDS d 504     -15.711  47.710 170.761  0.00  0.00     0.185 C 
ATOM      2  C4  IDS d 504     -14.319  47.542 171.349  0.00  0.00     0.195 C 
ATOM      3  C1  IDS d 504     -16.591  47.753 173.176  0.00  0.00     0.294 C 
ATOM      4  O5  IDS d 504     -15.230  47.563 173.577  0.00  0.00    -0.340 OA
ATOM      5  C2  IDS d 504     -16.831  47.245 171.769  0.00  0.00     0.231 C 
ATOM      6  C5  IDS d 504     -14.285  48.184 172.735  0.00  0.00     0.257 C 
ENDROOT
BRANCH   2   7
ATOM      7  O4  IDS d 504     -14.013  46.159 171.443  0.00  0.00    -0.348 OA
BRANCH   7   8
ATOM      8  C1  SGN d 505     -13.412  45.631 170.292  0.00  0.00     0.282 C 
ATOM      9  O5  SGN d 505     -12.268  46.365 169.958  0.00  0.00    -0.349 OA
ATOM     10  C5  SGN d 505     -11.255  46.291 170.914  0.00  0.00     0.181 C 
ATOM     11  C4  SGN d 505     -10.743  44.891 171.022  0.00  0.00     0.186 C 
ATOM     12  C3  SGN d 505     -11.928  44.021 171.532  0.00  0.00     0.173 C 
ATOM     13  C2  SGN d 505     -13.040  44.172 170.476  0.00  0.00     0.157 C 
BRANCH  10  14
ATOM     14  C6  SGN d 505     -10.203  47.261 170.485  0.00  0.00     0.227 C 
BRANCH  14  15
ATOM     15  O6  SGN d 505     -10.448  47.492 169.140  0.00  0.00    -0.254 OA
BRANCH  15  16
ATOM     16  S2  SGN d 505      -9.562  48.245 168.158  0.00  0.00     0.251 S 
ATOM     17  O5S SGN d 505      -8.763  49.114 168.985  0.00  0.00    -0.572 OA
ATOM     18  O4S SGN d 505     -10.485  48.932 167.283  0.00  0.00    -0.572 OA
ATOM     19  O6S SGN d 505      -8.762  47.248 167.460  0.00  0.00    -0.572 OA
ENDBRANCH  15  16
ENDBRANCH  14  15
ENDBRANCH  10  14
BRANCH  11  20
ATOM     20  O4  SGN d 505      -9.622  44.956 171.878  0.00  0.00    -0.348 OA
BRANCH  20  21
ATOM     21  C1  IDS d 506      -8.438  44.271 171.646  0.00  0.00     0.294 C 
ATOM     22  C2  IDS d 506      -7.447  44.598 172.772  0.00  0.00     0.231 C 
ATOM     23  C3  IDS d 506      -5.988  44.167 172.452  0.00  0.00     0.185 C 
ATOM     24  C4  IDS d 506      -5.591  44.372 170.974  0.00  0.00     0.189 C 
ATOM     25  C5  IDS d 506      -6.761  44.032 170.045  0.00  0.00     0.256 C 
ATOM     26  O5  IDS d 506      -7.898  44.731 170.434  0.00  0.00    -0.340 OA
BRANCH  22  27
ATOM     27  O2  IDS d 506      -7.419  45.992 173.008  0.00  0.00    -0.244 OA
BRANCH  27  28
ATOM     28  S   IDS d 506      -7.694  46.766 174.368  0.00  0.00     0.252 S 
ATOM     29  O1S IDS d 506      -6.546  46.508 175.181  0.00  0.00    -0.572 OA
ATOM     30  O2S IDS d 506      -7.812  48.165 174.070  0.00  0.00    -0.572 OA
ATOM     31  O3S IDS d 506      -8.911  46.191 174.901  0.00  0.00    -0.572 OA
ENDBRANCH  27  28
ENDBRANCH  22  27
BRANCH  23  32
ATOM     32  O3  IDS d 506      -5.844  42.786 172.772  0.00  0.00    -0.390 OA
ATOM     33  H   IDS d 506      -6.073  42.248 171.998  0.00  0.00     0.210 HD
ENDBRANCH  23  32
BRANCH  24  34
ATOM     34  O4  IDS d 506      -5.240  45.727 170.820  0.00  0.00    -0.390 OA
ATOM     35  H   IDS d 506      -6.035  46.247 170.623  0.00  0.00     0.210 HD
ENDBRANCH  24  34
BRANCH  25  36
ATOM     36  C6  IDS d 506      -6.529  44.234 168.559  0.00  0.00     0.206 C 
ATOM     37  O62 IDS d 506      -7.442  44.196 167.752  0.00  0.00    -0.646 OA
ATOM     38  O61 IDS d 506      -5.402  44.457 168.141  0.00  0.00    -0.646 OA
ENDBRANCH  25  36
ENDBRANCH  20  21
ENDBRANCH  11  20
BRANCH  12  39
ATOM     39  O3  SGN d 505     -11.551  42.652 171.597  0.00  0.00    -0.391 OA
ATOM     40  H   SGN d 505     -11.089  42.404 170.780  0.00  0.00     0.210 HD
ENDBRANCH  12  39
BRANCH  13  41
ATOM     41  N   SGN d 505     -14.268  43.383 170.730  0.00  0.00    -0.210 NA
ATOM     42  H   SGN d 505     -14.146  42.475 170.281  0.00  0.00     0.140 HD
BRANCH  41  43
ATOM     43  S1  SGN d 505     -14.688  43.099 172.328  0.00  0.00     0.156 S 
BRANCH  43  44
ATOM     44  O3S SGN d 505     -16.042  42.672 172.330  0.00  0.00    -0.296 OA
ATOM     45  H   SGN d 505     -16.625  43.446 172.329  0.00  0.00     0.231 HD
ENDBRANCH  43  44
BRANCH  43  46
ATOM     46  O1S SGN d 505     -13.779  42.101 172.849  0.00  0.00    -0.296 OA
ATOM     47  H   SGN d 505     -13.539  42.327 173.761  0.00  0.00     0.231 HD
ENDBRANCH  43  46
BRANCH  43  48
ATOM     48  O2S SGN d 505     -14.539  44.377 172.984  0.00  0.00    -0.296 OA
ATOM     49  H   SGN d 505     -14.609  44.258 173.944  0.00  0.00     0.231 HD
ENDBRANCH  43  48
ENDBRANCH  41  43
ENDBRANCH  13  41
ENDBRANCH   7   8
ENDBRANCH   2   7
BRANCH   1  50
ATOM     50  O3  IDS d 504     -15.877  49.092 170.467  0.00  0.00    -0.390 OA
ATOM     51  H   IDS d 504     -15.713  49.243 169.523  0.00  0.00     0.210 HD
ENDBRANCH   1  50
BRANCH   6  52
ATOM     52  C6  IDS d 504     -12.903  48.213 173.407  0.00  0.00     0.206 C 
ATOM     53  O62 IDS d 504     -12.033  49.006 173.042  0.00  0.00    -0.646 OA
ATOM     54  O61 IDS d 504     -12.626  47.435 174.312  0.00  0.00    -0.646 OA
ENDBRANCH   6  52
BRANCH   5  55
ATOM     55  O2  IDS d 504     -16.904  45.822 171.812  0.00  0.00    -0.244 OA
BRANCH  55  56
ATOM     56  S   IDS d 504     -18.023  44.939 171.231  0.00  0.00     0.252 S 
ATOM     57  O2S IDS d 504     -17.449  44.142 170.186  0.00  0.00    -0.572 OA
ATOM     58  O3S IDS d 504     -18.487  44.209 172.350  0.00  0.00    -0.572 OA
ATOM     59  O1S IDS d 504     -19.010  45.824 170.729  0.00  0.00    -0.572 OA
ENDBRANCH  55  56
ENDBRANCH   5  55
BRANCH   3  60
ATOM     60  O4  SGN d 503     -16.984  49.094 173.233  0.00  0.00    -0.348 OA
BRANCH  60  61
ATOM     61  C4  SGN d 503     -17.437  49.499 174.483  0.00  0.00     0.186 C 
ATOM     62  C5  SGN d 503     -18.781  50.228 174.310  0.00  0.00     0.181 C 
ATOM     63  O5  SGN d 503     -19.228  50.748 175.522  0.00  0.00    -0.349 OA
ATOM     64  C1  SGN d 503     -18.357  51.703 176.076  0.00  0.00     0.282 C 
ATOM     65  C2  SGN d 503     -16.992  51.054 176.348  0.00  0.00     0.157 C 
ATOM     66  C3  SGN d 503     -16.402  50.443 175.091  0.00  0.00     0.173 C 
BRANCH  62  67
ATOM     67  C6  SGN d 503     -19.907  49.350 173.835  0.00  0.00     0.227 C 
BRANCH  67  68
ATOM     68  O6  SGN d 503     -20.929  49.406 174.807  0.00  0.00    -0.254 OA
BRANCH  68  69
ATOM     69  S2  SGN d 503     -21.794  48.208 175.278  0.00  0.00     0.251 S 
ATOM     70  O6S SGN d 503     -20.939  47.496 176.145  0.00  0.00    -0.572 OA
ATOM     71  O4S SGN d 503     -22.910  48.718 176.000  0.00  0.00    -0.572 OA
ATOM     72  O5S SGN d 503     -22.206  47.481 174.080  0.00  0.00    -0.572 OA
ENDBRANCH  68  69
ENDBRANCH  67  68
ENDBRANCH  62  67
BRANCH  64  73
ATOM     73  O4  IDS d 502     -18.223  52.820 175.240  0.00  0.00    -0.348 OA
BRANCH  73  74
ATOM     74  C4  IDS d 502     -19.193  53.817 175.431  0.00  0.00     0.195 C 
ATOM     75  C3  IDS d 502     -18.596  54.965 176.268  0.00  0.00     0.185 C 
ATOM     76  C2  IDS d 502     -17.549  55.742 175.465  0.00  0.00     0.231 C 
ATOM     77  C1  IDS d 502     -18.058  56.112 174.076  0.00  0.00     0.291 C 
ATOM     78  O5  IDS d 502     -18.580  54.991 173.407  0.00  0.00    -0.340 OA
ATOM     79  C5  IDS d 502     -19.648  54.348 174.074  0.00  0.00     0.257 C 
BRANCH  75  80
ATOM     80  O3  IDS d 502     -19.631  55.860 176.623  0.00  0.00    -0.390 OA
ATOM     81  H   IDS d 502     -19.385  56.760 176.356  0.00  0.00     0.210 HD
ENDBRANCH  75  80
BRANCH  76  82
ATOM     82  O2  IDS d 502     -16.435  54.904 175.312  0.00  0.00    -0.244 OA
BRANCH  82  83
ATOM     83  S   IDS d 502     -14.953  55.198 175.718  0.00  0.00     0.252 S 
ATOM     84  O3S IDS d 502     -14.496  56.171 174.761  0.00  0.00    -0.572 OA
ATOM     85  O2S IDS d 502     -14.263  53.931 175.636  0.00  0.00    -0.572 OA
ATOM     86  O1S IDS d 502     -14.974  55.723 177.055  0.00  0.00    -0.572 OA
ENDBRANCH  82  83
ENDBRANCH  76  82
BRANCH  77  87
ATOM     87  O1  IDS d 502     -19.000  57.141 174.221  0.00  0.00    -0.368 OA
ATOM     88  H   IDS d 502     -19.629  57.110 173.482  0.00  0.00     0.212 HD
ENDBRANCH  77  87
BRANCH  79  89
ATOM     89  C6  IDS d 502     -20.290  53.300 173.176  0.00  0.00     0.206 C 
ATOM     90  O61 IDS d 502     -19.843  53.053 172.082  0.00  0.00    -0.646 OA
ATOM     91  O62 IDS d 502     -21.268  52.677 173.540  0.00  0.00    -0.646 OA
ENDBRANCH  79  89
ENDBRANCH  73  74
ENDBRANCH  64  73
BRANCH  65  92
ATOM     92  N   SGN d 503     -16.083  52.015 176.947  0.00  0.00    -0.210 NA
ATOM     93  H   SGN d 503     -16.639  52.814 177.251  0.00  0.00     0.140 HD
BRANCH  92  94
ATOM     94  S1  SGN d 503     -15.200  51.524 178.223  0.00  0.00     0.156 S 
BRANCH  94  95
ATOM     95  O2S SGN d 503     -14.976  50.085 178.096  0.00  0.00    -0.296 OA
ATOM     96  H   SGN d 503     -15.313  49.780 177.239  0.00  0.00     0.231 HD
ENDBRANCH  94  95
BRANCH  94  97
ATOM     97  O1S SGN d 503     -15.977  51.852 179.403  0.00  0.00    -0.296 OA
ATOM     98  H   SGN d 503     -16.007  51.084 179.994  0.00  0.00     0.231 HD
ENDBRANCH  94  97
BRANCH  94  99
ATOM     99  O3S SGN d 503     -13.995  52.315 178.117  0.00  0.00    -0.296 OA
ATOM    100  H   SGN d 503     -13.657  52.269 177.209  0.00  0.00     0.231 HD
ENDBRANCH  94  99
ENDBRANCH  92  94
ENDBRANCH  65  92
BRANCH  66 101
ATOM    101  O3  SGN d 503     -15.252  49.685 175.417  0.00  0.00    -0.391 OA
ATOM    102  H   SGN d 503     -15.501  48.959 176.010  0.00  0.00     0.210 HD
ENDBRANCH  66 101
ENDBRANCH  60  61
ENDBRANCH   3  60
TORSDOF 40
ENDMDL
MODEL 41
REMARK VINA RESULT:      -2.8      1.205      1.974
REMARK WARNING: 32 MAX_TORS EXCEEDED!!!
REMARK  40 active torsions:
REMARK  status: ('A' for Active; 'I' for Inactive)
REMARK    1 I    between atoms: C6_1  and  C5_8 
REMARK    2 I    between atoms: C6_1  and  O6_57 
REMARK    3 I    between atoms: O4_2  and  C4_49 
REMARK    4 I    between atoms: O6_3  and  C6_7 
REMARK    5 I    between atoms: O6_3  and  S2_58 
REMARK    6 I    between atoms: S_4  and  O2_6 
REMARK    7 I    between atoms: O3_5  and  C3_81 
REMARK    8 I    between atoms: O2_6  and  C2_11 
REMARK    9 I    between atoms: C6_7  and  C5_54 
REMARK   10 I    between atoms: O4_9  and  C4_32 
REMARK   11 I    between atoms: O4_9  and  C1_39 
REMARK   12 I    between atoms: O3_12  and  C3_18 
REMARK   13 I    between atoms: N_13  and  C2_52 
REMARK   14 I    between atoms: N_13  and  S1_45 
REMARK   15 I    between atoms: O3_17  and  C3_83 
REMARK   16 I    between atoms: C4_20  and  O4_44 
REMARK   17 I    between atoms: N_21  and  C2_66 
REMARK   18 I    between atoms: N_21  and  S1_53 
REMARK   19 I    between atoms: O3_22  and  C3_65 
REMARK   20 I    between atoms: C4_23  and  O4_74 
REMARK   21 I    between atoms: C1_25  and  O1_72 
REMARK   22 I    between atoms: C2_28  and  O2_69 
REMARK   23 I    between atoms: C4_33  and  O4_61 
REMARK   24 I    between atoms: O2S_34  and  S1_45 
REMARK   25 I    between atoms: C6_37  and  C5_47 
REMARK   26 I    between atoms: O2_38  and  C2_77 
REMARK   27 I    between atoms: O2_38  and  S_50 
REMARK   28 I    between atoms: O3S_40  and  S1_53 
REMARK   29 I    between atoms: O1S_42  and  S1_45 
REMARK   30 I    between atoms: O1S_43  and  S1_53 
REMARK   31 I    between atoms: O4_44  and  C1_46 
REMARK   32 I    between atoms: S1_45  and  O3S_60 
REMARK   33 I    between atoms: C6_48  and  C5_84 
REMARK   34 I    between atoms: C6_51  and  C5_87 
REMARK   35 I    between atoms: S1_53  and  O2S_55 
REMARK   36 I    between atoms: C1_56  and  O4_74 
REMARK   37 I    between atoms: O6_57  and  S2_82 
REMARK   38 I    between atoms: O4_61  and  C1_70 
REMARK   39 I    between atoms: C3_63  and  O3_79 
REMARK   40 I    between atoms: O2_69  and  S_76 
ROOT
ATOM      1  C3  IDS d 504     -16.987  49.653 175.550  0.00  0.00     0.185 C 
ATOM      2  C4  IDS d 504     -16.369  49.334 174.198  0.00  0.00     0.195 C 
ATOM      3  C1  IDS d 504     -16.852  52.134 174.888  0.00  0.00     0.294 C 
ATOM      4  O5  IDS d 504     -16.253  51.680 173.670  0.00  0.00    -0.340 OA
ATOM      5  C2  IDS d 504     -16.666  51.128 176.006  0.00  0.00     0.231 C 
ATOM      6  C5  IDS d 504     -16.740  50.439 173.211  0.00  0.00     0.257 C 
ENDROOT
BRANCH   2   7
ATOM      7  O4  IDS d 504     -14.958  49.253 174.333  0.00  0.00    -0.348 OA
BRANCH   7   8
ATOM      8  C1  SGN d 505     -14.500  47.998 174.758  0.00  0.00     0.282 C 
ATOM      9  O5  SGN d 505     -14.422  47.115 173.674  0.00  0.00    -0.349 OA
ATOM     10  C5  SGN d 505     -13.486  47.491 172.711  0.00  0.00     0.181 C 
ATOM     11  C4  SGN d 505     -12.106  47.453 173.282  0.00  0.00     0.186 C 
ATOM     12  C3  SGN d 505     -12.063  48.521 174.414  0.00  0.00     0.173 C 
ATOM     13  C2  SGN d 505     -13.144  48.096 175.428  0.00  0.00     0.157 C 
BRANCH  10  14
ATOM     14  C6  SGN d 505     -13.665  46.550 171.564  0.00  0.00     0.227 C 
BRANCH  14  15
ATOM     15  O6  SGN d 505     -13.950  47.357 170.473  0.00  0.00    -0.254 OA
BRANCH  15  16
ATOM     16  S2  SGN d 505     -14.646  46.950 169.182  0.00  0.00     0.251 S 
ATOM     17  O5S SGN d 505     -13.735  46.023 168.557  0.00  0.00    -0.572 OA
ATOM     18  O4S SGN d 505     -14.832  48.187 168.459  0.00  0.00    -0.572 OA
ATOM     19  O6S SGN d 505     -15.906  46.324 169.560  0.00  0.00    -0.572 OA
ENDBRANCH  15  16
ENDBRANCH  14  15
ENDBRANCH  10  14
BRANCH  11  20
ATOM     20  O4  SGN d 505     -11.233  47.681 172.196  0.00  0.00    -0.348 OA
BRANCH  20  21
ATOM     21  C1  IDS d 506     -10.040  46.997 172.014  0.00  0.00     0.294 C 
ATOM     22  C2  IDS d 506      -9.413  47.437 170.683  0.00  0.00     0.231 C 
ATOM     23  C3  IDS d 506      -8.262  46.507 170.209  0.00  0.00     0.185 C 
ATOM     24  C4  IDS d 506      -8.511  45.012 170.500  0.00  0.00     0.189 C 
ATOM     25  C5  IDS d 506      -9.193  44.831 171.861  0.00  0.00     0.256 C 
ATOM     26  O5  IDS d 506     -10.331  45.624 171.934  0.00  0.00    -0.340 OA
BRANCH  22  27
ATOM     27  O2  IDS d 506     -10.390  47.434 169.661  0.00  0.00    -0.244 OA
BRANCH  27  28
ATOM     28  S   IDS d 506     -10.750  48.598 168.640  0.00  0.00     0.252 S 
ATOM     29  O1S IDS d 506     -11.249  47.931 167.477  0.00  0.00    -0.572 OA
ATOM     30  O2S IDS d 506     -11.764  49.419 169.239  0.00  0.00    -0.572 OA
ATOM     31  O3S IDS d 506      -9.509  49.303 168.405  0.00  0.00    -0.572 OA
ENDBRANCH  27  28
ENDBRANCH  22  27
BRANCH  23  32
ATOM     32  O3  IDS d 506      -7.061  46.903 170.865  0.00  0.00    -0.390 OA
ATOM     33  H   IDS d 506      -6.865  46.281 171.584  0.00  0.00     0.210 HD
ENDBRANCH  23  32
BRANCH  24  34
ATOM     34  O4  IDS d 506      -9.348  44.520 169.480  0.00  0.00    -0.390 OA
ATOM     35  H   IDS d 506      -8.962  44.731 168.615  0.00  0.00     0.210 HD
ENDBRANCH  24  34
BRANCH  25  36
ATOM     36  C6  IDS d 506      -9.544  43.409 172.260  0.00  0.00     0.206 C 
ATOM     37  O62 IDS d 506     -10.338  42.737 171.626  0.00  0.00    -0.646 OA
ATOM     38  O61 IDS d 506      -9.012  42.900 173.237  0.00  0.00    -0.646 OA
ENDBRANCH  25  36
ENDBRANCH  20  21
ENDBRANCH  11  20
BRANCH  12  39
ATOM     39  O3  SGN d 505     -10.801  48.505 175.067  0.00  0.00    -0.391 OA
ATOM     40  H   SGN d 505     -10.836  47.900 175.825  0.00  0.00     0.210 HD
ENDBRANCH  12  39
BRANCH  13  41
ATOM     41  N   SGN d 505     -13.254  48.952 176.632  0.00  0.00    -0.210 NA
ATOM     42  H   SGN d 505     -13.936  49.682 176.427  0.00  0.00     0.140 HD
BRANCH  41  43
ATOM     43  S1  SGN d 505     -13.720  48.216 178.064  0.00  0.00     0.156 S 
BRANCH  43  44
ATOM     44  O3S SGN d 505     -13.171  48.987 179.123  0.00  0.00    -0.296 OA
ATOM     45  H   SGN d 505     -12.225  49.126 178.964  0.00  0.00     0.231 HD
ENDBRANCH  43  44
BRANCH  43  46
ATOM     46  O1S SGN d 505     -15.167  48.177 178.084  0.00  0.00    -0.296 OA
ATOM     47  H   SGN d 505     -15.492  47.814 177.246  0.00  0.00     0.231 HD
ENDBRANCH  43  46
BRANCH  43  48
ATOM     48  O2S SGN d 505     -13.133  46.898 178.013  0.00  0.00    -0.296 OA
ATOM     49  H   SGN d 505     -13.302  46.435 178.849  0.00  0.00     0.231 HD
ENDBRANCH  43  48
ENDBRANCH  41  43
ENDBRANCH  13  41
ENDBRANCH   7   8
ENDBRANCH   2   7
BRANCH   1  50
ATOM     50  O3  IDS d 504     -18.393  49.491 175.416  0.00  0.00    -0.390 OA
ATOM     51  H   IDS d 504     -18.761  49.160 176.251  0.00  0.00     0.210 HD
ENDBRANCH   1  50
BRANCH   6  52
ATOM     52  C6  IDS d 504     -16.298  50.193 171.758  0.00  0.00     0.206 C 
ATOM     53  O62 IDS d 504     -16.832  49.321 171.070  0.00  0.00    -0.646 OA
ATOM     54  O61 IDS d 504     -15.392  50.846 171.257  0.00  0.00    -0.646 OA
ENDBRANCH   6  52
BRANCH   5  55
ATOM     55  O2  IDS d 504     -15.322  51.224 176.476  0.00  0.00    -0.244 OA
BRANCH  55  56
ATOM     56  S   IDS d 504     -14.848  51.899 177.775  0.00  0.00     0.252 S 
ATOM     57  O2S IDS d 504     -15.449  51.200 178.873  0.00  0.00    -0.572 OA
ATOM     58  O3S IDS d 504     -13.438  51.800 177.707  0.00  0.00    -0.572 OA
ATOM     59  O1S IDS d 504     -15.287  53.245 177.710  0.00  0.00    -0.572 OA
ENDBRANCH  55  56
ENDBRANCH   5  55
BRANCH   3  60
ATOM     60  O4  SGN d 503     -18.220  52.389 174.750  0.00  0.00    -0.348 OA
BRANCH  60  61
ATOM     61  C4  SGN d 503     -18.510  53.612 174.156  0.00  0.00     0.186 C 
ATOM     62  C5  SGN d 503     -19.031  54.575 175.238  0.00  0.00     0.181 C 
ATOM     63  O5  SGN d 503     -19.437  55.784 174.678  0.00  0.00    -0.349 OA
ATOM     64  C1  SGN d 503     -20.495  55.648 173.762  0.00  0.00     0.282 C 
ATOM     65  C2  SGN d 503     -20.053  54.748 172.599  0.00  0.00     0.157 C 
ATOM     66  C3  SGN d 503     -19.580  53.391 173.089  0.00  0.00     0.173 C 
BRANCH  62  67
ATOM     67  C6  SGN d 503     -18.008  54.960 176.272  0.00  0.00     0.227 C 
BRANCH  67  68
ATOM     68  O6  SGN d 503     -17.476  56.213 175.898  0.00  0.00    -0.254 OA
BRANCH  68  69
ATOM     69  S2  SGN d 503     -15.968  56.543 175.743  0.00  0.00     0.251 S 
ATOM     70  O6S SGN d 503     -15.960  57.898 175.347  0.00  0.00    -0.572 OA
ATOM     71  O4S SGN d 503     -15.346  56.401 177.015  0.00  0.00    -0.572 OA
ATOM     72  O5S SGN d 503     -15.424  55.609 174.762  0.00  0.00    -0.572 OA
ENDBRANCH  68  69
ENDBRANCH  67  68
ENDBRANCH  62  67
BRANCH  64  73
ATOM     73  O4  IDS d 502     -21.646  55.140 174.379  0.00  0.00    -0.348 OA
BRANCH  73  74
ATOM     74  C4  IDS d 502     -22.723  56.039 174.445  0.00  0.00     0.195 C 
ATOM     75  C3  IDS d 502     -23.958  55.416 173.768  0.00  0.00     0.185 C 
ATOM     76  C2  IDS d 502     -24.512  54.254 174.598  0.00  0.00     0.231 C 
ATOM     77  C1  IDS d 502     -24.663  54.628 176.069  0.00  0.00     0.291 C 
ATOM     78  O5  IDS d 502     -23.479  55.187 176.579  0.00  0.00    -0.340 OA
ATOM     79  C5  IDS d 502     -23.035  56.350 175.907  0.00  0.00     0.257 C 
BRANCH  75  80
ATOM     80  O3  IDS d 502     -24.969  56.399 173.662  0.00  0.00    -0.390 OA
ATOM     81  H   IDS d 502     -24.593  57.271 173.858  0.00  0.00     0.210 HD
ENDBRANCH  75  80
BRANCH  76  82
ATOM     82  O2  IDS d 502     -23.588  53.202 174.510  0.00  0.00    -0.244 OA
BRANCH  82  83
ATOM     83  S   IDS d 502     -23.686  51.913 173.629  0.00  0.00     0.252 S 
ATOM     84  O3S IDS d 502     -22.650  52.064 172.641  0.00  0.00    -0.572 OA
ATOM     85  O2S IDS d 502     -25.021  51.913 173.077  0.00  0.00    -0.572 OA
ATOM     86  O1S IDS d 502     -23.451  50.788 174.491  0.00  0.00    -0.572 OA
ENDBRANCH  82  83
ENDBRANCH  76  82
BRANCH  77  87
ATOM     87  O1  IDS d 502     -25.761  55.493 176.184  0.00  0.00    -0.368 OA
ATOM     88  H   IDS d 502     -25.483  56.313 176.621  0.00  0.00     0.212 HD
ENDBRANCH  77  87
BRANCH  79  89
ATOM     89  C6  IDS d 502     -21.889  57.005 176.665  0.00  0.00     0.206 C 
ATOM     90  O61 IDS d 502     -21.299  56.418 177.539  0.00  0.00    -0.646 OA
ATOM     91  O62 IDS d 502     -21.534  58.138 176.405  0.00  0.00    -0.646 OA
ENDBRANCH  79  89
ENDBRANCH  73  74
ENDBRANCH  64  73
BRANCH  65  92
ATOM     92  N   SGN d 503     -21.121  54.615 171.624  0.00  0.00    -0.210 NA
ATOM     93  H   SGN d 503     -21.794  55.360 171.805  0.00  0.00     0.140 HD
BRANCH  92  94
ATOM     94  S1  SGN d 503     -20.719  54.695 170.049  0.00  0.00     0.156 S 
BRANCH  94  95
ATOM     95  O2S SGN d 503     -21.637  55.622 169.390  0.00  0.00    -0.296 OA
ATOM     96  H   SGN d 503     -21.724  56.426 169.926  0.00  0.00     0.231 HD
ENDBRANCH  94  95
BRANCH  94  97
ATOM     97  O1S SGN d 503     -20.842  53.345 169.531  0.00  0.00    -0.296 OA
ATOM     98  H   SGN d 503     -20.061  53.131 168.998  0.00  0.00     0.231 HD
ENDBRANCH  94  97
BRANCH  94  99
ATOM     99  O3S SGN d 503     -19.348  55.152 170.081  0.00  0.00    -0.296 OA
ATOM    100  H   SGN d 503     -18.965  54.965 170.952  0.00  0.00     0.231 HD
ENDBRANCH  94  99
ENDBRANCH  92  94
ENDBRANCH  65  92
BRANCH  66 101
ATOM    101  O3  SGN d 503     -18.995  52.670 172.022  0.00  0.00    -0.391 OA
ATOM    102  H   SGN d 503     -18.254  53.177 171.657  0.00  0.00     0.210 HD
ENDBRANCH  66 101
ENDBRANCH  60  61
ENDBRANCH   3  60
TORSDOF 40
ENDMDL
MODEL 42
REMARK VINA RESULT:      -2.8      4.117     12.173
REMARK WARNING: 32 MAX_TORS EXCEEDED!!!
REMARK  40 active torsions:
REMARK  status: ('A' for Active; 'I' for Inactive)
REMARK    1 I    between atoms: C6_1  and  C5_8 
REMARK    2 I    between atoms: C6_1  and  O6_57 
REMARK    3 I    between atoms: O4_2  and  C4_49 
REMARK    4 I    between atoms: O6_3  and  C6_7 
REMARK    5 I    between atoms: O6_3  and  S2_58 
REMARK    6 I    between atoms: S_4  and  O2_6 
REMARK    7 I    between atoms: O3_5  and  C3_81 
REMARK    8 I    between atoms: O2_6  and  C2_11 
REMARK    9 I    between atoms: C6_7  and  C5_54 
REMARK   10 I    between atoms: O4_9  and  C4_32 
REMARK   11 I    between atoms: O4_9  and  C1_39 
REMARK   12 I    between atoms: O3_12  and  C3_18 
REMARK   13 I    between atoms: N_13  and  C2_52 
REMARK   14 I    between atoms: N_13  and  S1_45 
REMARK   15 I    between atoms: O3_17  and  C3_83 
REMARK   16 I    between atoms: C4_20  and  O4_44 
REMARK   17 I    between atoms: N_21  and  C2_66 
REMARK   18 I    between atoms: N_21  and  S1_53 
REMARK   19 I    between atoms: O3_22  and  C3_65 
REMARK   20 I    between atoms: C4_23  and  O4_74 
REMARK   21 I    between atoms: C1_25  and  O1_72 
REMARK   22 I    between atoms: C2_28  and  O2_69 
REMARK   23 I    between atoms: C4_33  and  O4_61 
REMARK   24 I    between atoms: O2S_34  and  S1_45 
REMARK   25 I    between atoms: C6_37  and  C5_47 
REMARK   26 I    between atoms: O2_38  and  C2_77 
REMARK   27 I    between atoms: O2_38  and  S_50 
REMARK   28 I    between atoms: O3S_40  and  S1_53 
REMARK   29 I    between atoms: O1S_42  and  S1_45 
REMARK   30 I    between atoms: O1S_43  and  S1_53 
REMARK   31 I    between atoms: O4_44  and  C1_46 
REMARK   32 I    between atoms: S1_45  and  O3S_60 
REMARK   33 I    between atoms: C6_48  and  C5_84 
REMARK   34 I    between atoms: C6_51  and  C5_87 
REMARK   35 I    between atoms: S1_53  and  O2S_55 
REMARK   36 I    between atoms: C1_56  and  O4_74 
REMARK   37 I    between atoms: O6_57  and  S2_82 
REMARK   38 I    between atoms: O4_61  and  C1_70 
REMARK   39 I    between atoms: C3_63  and  O3_79 
REMARK   40 I    between atoms: O2_69  and  S_76 
ROOT
ATOM      1  C3  IDS d 504     -15.501  51.271 174.167  0.00  0.00     0.185 C 
ATOM      2  C4  IDS d 504     -16.618  50.309 173.792  0.00  0.00     0.195 C 
ATOM      3  C1  IDS d 504     -14.267  49.251 175.171  0.00  0.00     0.294 C 
ATOM      4  O5  IDS d 504     -15.407  48.479 174.781  0.00  0.00    -0.340 OA
ATOM      5  C2  IDS d 504     -14.622  50.713 175.352  0.00  0.00     0.231 C 
ATOM      6  C5  IDS d 504     -16.025  48.916 173.592  0.00  0.00     0.257 C 
ENDROOT
BRANCH   2   7
ATOM      7  O4  IDS d 504     -17.585  50.285 174.832  0.00  0.00    -0.348 OA
BRANCH   7   8
ATOM      8  C1  SGN d 505     -18.823  50.833 174.468  0.00  0.00     0.282 C 
ATOM      9  O5  SGN d 505     -19.642  49.852 173.896  0.00  0.00    -0.349 OA
ATOM     10  C5  SGN d 505     -19.989  48.827 174.776  0.00  0.00     0.181 C 
ATOM     11  C4  SGN d 505     -20.826  49.362 175.893  0.00  0.00     0.186 C 
ATOM     12  C3  SGN d 505     -19.932  50.366 176.677  0.00  0.00     0.173 C 
ATOM     13  C2  SGN d 505     -19.531  51.450 175.658  0.00  0.00     0.157 C 
BRANCH  10  14
ATOM     14  C6  SGN d 505     -20.700  47.798 173.959  0.00  0.00     0.227 C 
BRANCH  14  15
ATOM     15  O6  SGN d 505     -20.281  46.578 174.469  0.00  0.00    -0.254 OA
BRANCH  15  16
ATOM     16  S2  SGN d 505     -20.597  45.193 173.922  0.00  0.00     0.251 S 
ATOM     17  O5S SGN d 505     -20.422  45.319 172.496  0.00  0.00    -0.572 OA
ATOM     18  O4S SGN d 505     -21.957  44.936 174.338  0.00  0.00    -0.572 OA
ATOM     19  O6S SGN d 505     -19.642  44.272 174.522  0.00  0.00    -0.572 OA
ENDBRANCH  15  16
ENDBRANCH  14  15
ENDBRANCH  10  14
BRANCH  11  20
ATOM     20  O4  SGN d 505     -21.259  48.233 176.622  0.00  0.00    -0.348 OA
BRANCH  20  21
ATOM     21  C1  IDS d 506     -22.586  47.991 176.943  0.00  0.00     0.294 C 
ATOM     22  C2  IDS d 506     -22.654  46.801 177.912  0.00  0.00     0.231 C 
ATOM     23  C3  IDS d 506     -24.087  46.224 178.078  0.00  0.00     0.185 C 
ATOM     24  C4  IDS d 506     -24.909  46.218 176.771  0.00  0.00     0.189 C 
ATOM     25  C5  IDS d 506     -24.633  47.482 175.950  0.00  0.00     0.256 C 
ATOM     26  O5  IDS d 506     -23.265  47.640 175.764  0.00  0.00    -0.340 OA
BRANCH  22  27
ATOM     27  O2  IDS d 506     -21.839  45.745 177.443  0.00  0.00    -0.244 OA
BRANCH  27  28
ATOM     28  S   IDS d 506     -21.452  44.396 178.188  0.00  0.00     0.252 S 
ATOM     29  O1S IDS d 506     -21.599  44.684 179.581  0.00  0.00    -0.572 OA
ATOM     30  O2S IDS d 506     -22.374  43.377 177.772  0.00  0.00    -0.572 OA
ATOM     31  O3S IDS d 506     -20.084  44.120 177.803  0.00  0.00    -0.572 OA
ENDBRANCH  27  28
ENDBRANCH  22  27
BRANCH  23  32
ATOM     32  O3  IDS d 506     -24.781  47.006 179.046  0.00  0.00    -0.390 OA
ATOM     33  H   IDS d 506     -24.239  47.773 179.292  0.00  0.00     0.210 HD
ENDBRANCH  23  32
BRANCH  24  34
ATOM     34  O4  IDS d 506     -24.520  45.080 176.038  0.00  0.00    -0.390 OA
ATOM     35  H   IDS d 506     -25.285  44.496 175.916  0.00  0.00     0.210 HD
ENDBRANCH  24  34
BRANCH  25  36
ATOM     36  C6  IDS d 506     -25.339  47.590 174.612  0.00  0.00     0.206 C 
ATOM     37  O62 IDS d 506     -25.413  46.648 173.842  0.00  0.00    -0.646 OA
ATOM     38  O61 IDS d 506     -25.870  48.642 174.284  0.00  0.00    -0.646 OA
ENDBRANCH  25  36
ENDBRANCH  20  21
ENDBRANCH  11  20
BRANCH  12  39
ATOM     39  O3  SGN d 505     -20.673  50.981 177.723  0.00  0.00    -0.391 OA
ATOM     40  H   SGN d 505     -20.393  50.615 178.577  0.00  0.00     0.210 HD
ENDBRANCH  12  39
BRANCH  13  41
ATOM     41  N   SGN d 505     -18.705  52.554 176.200  0.00  0.00    -0.210 NA
ATOM     42  H   SGN d 505     -17.733  52.248 176.180  0.00  0.00     0.140 HD
BRANCH  41  43
ATOM     43  S1  SGN d 505     -18.780  54.033 175.415  0.00  0.00     0.156 S 
BRANCH  43  44
ATOM     44  O3S SGN d 505     -17.580  54.167 174.668  0.00  0.00    -0.296 OA
ATOM     45  H   SGN d 505     -17.756  53.968 173.736  0.00  0.00     0.231 HD
ENDBRANCH  43  44
BRANCH  43  46
ATOM     46  O1S SGN d 505     -19.966  54.028 174.584  0.00  0.00    -0.296 OA
ATOM     47  H   SGN d 505     -19.781  54.494 173.754  0.00  0.00     0.231 HD
ENDBRANCH  43  46
BRANCH  43  48
ATOM     48  O2S SGN d 505     -18.853  55.013 176.474  0.00  0.00    -0.296 OA
ATOM     49  H   SGN d 505     -18.569  54.609 177.309  0.00  0.00     0.231 HD
ENDBRANCH  43  48
ENDBRANCH  41  43
ENDBRANCH  13  41
ENDBRANCH   7   8
ENDBRANCH   2   7
BRANCH   1  50
ATOM     50  O3  IDS d 504     -14.690  51.442 173.011  0.00  0.00    -0.390 OA
ATOM     51  H   IDS d 504     -15.016  50.867 172.301  0.00  0.00     0.210 HD
ENDBRANCH   1  50
BRANCH   6  52
ATOM     52  C6  IDS d 504     -17.013  47.855 173.078  0.00  0.00     0.206 C 
ATOM     53  O62 IDS d 504     -17.657  48.033 172.042  0.00  0.00    -0.646 OA
ATOM     54  O61 IDS d 504     -17.196  46.814 173.695  0.00  0.00    -0.646 OA
ENDBRANCH   6  52
BRANCH   5  55
ATOM     55  O2  IDS d 504     -15.310  50.857 176.593  0.00  0.00    -0.244 OA
BRANCH  55  56
ATOM     56  S   IDS d 504     -15.205  52.041 177.571  0.00  0.00     0.252 S 
ATOM     57  O2S IDS d 504     -16.045  51.750 178.696  0.00  0.00    -0.572 OA
ATOM     58  O3S IDS d 504     -13.822  52.111 177.863  0.00  0.00    -0.572 OA
ATOM     59  O1S IDS d 504     -15.655  53.184 176.865  0.00  0.00    -0.572 OA
ENDBRANCH  55  56
ENDBRANCH   5  55
BRANCH   3  60
ATOM     60  O4  SGN d 503     -13.220  49.165 174.247  0.00  0.00    -0.348 OA
BRANCH  60  61
ATOM     61  C4  SGN d 503     -12.675  47.891 174.127  0.00  0.00     0.186 C 
ATOM     62  C5  SGN d 503     -11.313  47.868 174.843  0.00  0.00     0.181 C 
ATOM     63  O5  SGN d 503     -10.674  46.643 174.664  0.00  0.00    -0.349 OA
ATOM     64  C1  SGN d 503     -10.391  46.354 173.317  0.00  0.00     0.282 C 
ATOM     65  C2  SGN d 503     -11.701  46.291 172.519  0.00  0.00     0.157 C 
ATOM     66  C3  SGN d 503     -12.494  47.579 172.644  0.00  0.00     0.173 C 
BRANCH  62  67
ATOM     67  C6  SGN d 503     -11.392  48.039 176.336  0.00  0.00     0.227 C 
BRANCH  67  68
ATOM     68  O6  SGN d 503     -11.560  46.757 176.902  0.00  0.00    -0.254 OA
BRANCH  68  69
ATOM     69  S2  SGN d 503     -12.902  46.157 177.397  0.00  0.00     0.251 S 
ATOM     70  O6S SGN d 503     -12.518  44.966 178.049  0.00  0.00    -0.572 OA
ATOM     71  O4S SGN d 503     -13.479  47.062 178.332  0.00  0.00    -0.572 OA
ATOM     72  O5S SGN d 503     -13.748  45.974 176.221  0.00  0.00    -0.572 OA
ENDBRANCH  68  69
ENDBRANCH  67  68
ENDBRANCH  62  67
BRANCH  64  73
ATOM     73  O4  IDS d 502      -9.512  47.295 172.764  0.00  0.00    -0.348 OA
BRANCH  73  74
ATOM     74  C4  IDS d 502      -8.150  46.989 172.914  0.00  0.00     0.195 C 
ATOM     75  C3  IDS d 502      -7.638  46.275 171.649  0.00  0.00     0.185 C 
ATOM     76  C2  IDS d 502      -7.578  47.240 170.461  0.00  0.00     0.231 C 
ATOM     77  C1  IDS d 502      -6.886  48.549 170.826  0.00  0.00     0.291 C 
ATOM     78  O5  IDS d 502      -7.432  49.107 171.995  0.00  0.00    -0.340 OA
ATOM     79  C5  IDS d 502      -7.361  48.277 173.138  0.00  0.00     0.257 C 
BRANCH  75  80
ATOM     80  O3  IDS d 502      -6.330  45.794 171.890  0.00  0.00    -0.390 OA
ATOM     81  H   IDS d 502      -6.013  45.314 171.109  0.00  0.00     0.210 HD
ENDBRANCH  75  80
BRANCH  76  82
ATOM     82  O2  IDS d 502      -8.900  47.534 170.096  0.00  0.00    -0.244 OA
BRANCH  82  83
ATOM     83  S   IDS d 502      -9.443  47.896 168.675  0.00  0.00     0.252 S 
ATOM     84  O3S IDS d 502      -8.806  46.956 167.788  0.00  0.00    -0.572 OA
ATOM     85  O2S IDS d 502      -9.059  49.269 168.443  0.00  0.00    -0.572 OA
ATOM     86  O1S IDS d 502     -10.869  47.726 168.707  0.00  0.00    -0.572 OA
ENDBRANCH  82  83
ENDBRANCH  76  82
BRANCH  77  87
ATOM     87  O1  IDS d 502      -5.511  48.292 170.942  0.00  0.00    -0.368 OA
ATOM     88  H   IDS d 502      -5.229  48.452 171.857  0.00  0.00     0.212 HD
ENDBRANCH  77  87
BRANCH  79  89
ATOM     89  C6  IDS d 502      -7.763  49.047 174.388  0.00  0.00     0.206 C 
ATOM     90  O61 IDS d 502      -7.832  48.503 175.463  0.00  0.00    -0.646 OA
ATOM     91  O62 IDS d 502      -8.022  50.234 174.336  0.00  0.00    -0.646 OA
ENDBRANCH  79  89
ENDBRANCH  73  74
ENDBRANCH  64  73
BRANCH  65  92
ATOM     92  N   SGN d 503     -11.436  45.965 171.129  0.00  0.00    -0.210 NA
ATOM     93  H   SGN d 503     -10.482  45.609 171.076  0.00  0.00     0.140 HD
BRANCH  92  94
ATOM     94  S1  SGN d 503     -12.404  44.871 170.414  0.00  0.00     0.156 S 
BRANCH  94  95
ATOM     95  O2S SGN d 503     -11.561  43.847 169.799  0.00  0.00    -0.296 OA
ATOM     96  H   SGN d 503     -10.725  43.782 170.287  0.00  0.00     0.231 HD
ENDBRANCH  94  95
BRANCH  94  97
ATOM     97  O1S SGN d 503     -13.180  45.600 169.429  0.00  0.00    -0.296 OA
ATOM     98  H   SGN d 503     -13.241  45.078 168.614  0.00  0.00     0.231 HD
ENDBRANCH  94  97
BRANCH  94  99
ATOM     99  O3S SGN d 503     -13.216  44.382 171.506  0.00  0.00    -0.296 OA
ATOM    100  H   SGN d 503     -13.954  43.862 171.152  0.00  0.00     0.231 HD
ENDBRANCH  94  99
ENDBRANCH  92  94
ENDBRANCH  65  92
BRANCH  66 101
ATOM    101  O3  SGN d 503     -13.777  47.413 172.070  0.00  0.00    -0.391 OA
ATOM    102  H   SGN d 503     -14.439  47.855 172.623  0.00  0.00     0.210 HD
ENDBRANCH  66 101
ENDBRANCH  60  61
ENDBRANCH   3  60
TORSDOF 40
ENDMDL
MODEL 43
REMARK VINA RESULT:      -2.8      2.678      4.862
REMARK WARNING: 32 MAX_TORS EXCEEDED!!!
REMARK  40 active torsions:
REMARK  status: ('A' for Active; 'I' for Inactive)
REMARK    1 I    between atoms: C6_1  and  C5_8 
REMARK    2 I    between atoms: C6_1  and  O6_57 
REMARK    3 I    between atoms: O4_2  and  C4_49 
REMARK    4 I    between atoms: O6_3  and  C6_7 
REMARK    5 I    between atoms: O6_3  and  S2_58 
REMARK    6 I    between atoms: S_4  and  O2_6 
REMARK    7 I    between atoms: O3_5  and  C3_81 
REMARK    8 I    between atoms: O2_6  and  C2_11 
REMARK    9 I    between atoms: C6_7  and  C5_54 
REMARK   10 I    between atoms: O4_9  and  C4_32 
REMARK   11 I    between atoms: O4_9  and  C1_39 
REMARK   12 I    between atoms: O3_12  and  C3_18 
REMARK   13 I    between atoms: N_13  and  C2_52 
REMARK   14 I    between atoms: N_13  and  S1_45 
REMARK   15 I    between atoms: O3_17  and  C3_83 
REMARK   16 I    between atoms: C4_20  and  O4_44 
REMARK   17 I    between atoms: N_21  and  C2_66 
REMARK   18 I    between atoms: N_21  and  S1_53 
REMARK   19 I    between atoms: O3_22  and  C3_65 
REMARK   20 I    between atoms: C4_23  and  O4_74 
REMARK   21 I    between atoms: C1_25  and  O1_72 
REMARK   22 I    between atoms: C2_28  and  O2_69 
REMARK   23 I    between atoms: C4_33  and  O4_61 
REMARK   24 I    between atoms: O2S_34  and  S1_45 
REMARK   25 I    between atoms: C6_37  and  C5_47 
REMARK   26 I    between atoms: O2_38  and  C2_77 
REMARK   27 I    between atoms: O2_38  and  S_50 
REMARK   28 I    between atoms: O3S_40  and  S1_53 
REMARK   29 I    between atoms: O1S_42  and  S1_45 
REMARK   30 I    between atoms: O1S_43  and  S1_53 
REMARK   31 I    between atoms: O4_44  and  C1_46 
REMARK   32 I    between atoms: S1_45  and  O3S_60 
REMARK   33 I    between atoms: C6_48  and  C5_84 
REMARK   34 I    between atoms: C6_51  and  C5_87 
REMARK   35 I    between atoms: S1_53  and  O2S_55 
REMARK   36 I    between atoms: C1_56  and  O4_74 
REMARK   37 I    between atoms: O6_57  and  S2_82 
REMARK   38 I    between atoms: O4_61  and  C1_70 
REMARK   39 I    between atoms: C3_63  and  O3_79 
REMARK   40 I    between atoms: O2_69  and  S_76 
ROOT
ATOM      1  C3  IDS d 504     -16.522  48.257 173.355  0.00  0.00     0.185 C 
ATOM      2  C4  IDS d 504     -15.016  48.469 173.363  0.00  0.00     0.195 C 
ATOM      3  C1  IDS d 504     -16.614  49.717 175.469  0.00  0.00     0.294 C 
ATOM      4  O5  IDS d 504     -15.189  49.800 175.361  0.00  0.00    -0.340 OA
ATOM      5  C2  IDS d 504     -17.151  48.476 174.784  0.00  0.00     0.231 C 
ATOM      6  C5  IDS d 504     -14.707  49.804 174.037  0.00  0.00     0.257 C 
ENDROOT
BRANCH   2   7
ATOM      7  O4  IDS d 504     -14.397  47.408 174.076  0.00  0.00    -0.348 OA
BRANCH   7   8
ATOM      8  C1  SGN d 505     -14.495  46.163 173.438  0.00  0.00     0.282 C 
ATOM      9  O5  SGN d 505     -13.841  46.195 172.201  0.00  0.00    -0.349 OA
ATOM     10  C5  SGN d 505     -12.465  46.399 172.299  0.00  0.00     0.181 C 
ATOM     11  C4  SGN d 505     -11.816  45.249 172.998  0.00  0.00     0.186 C 
ATOM     12  C3  SGN d 505     -12.388  45.228 174.446  0.00  0.00     0.173 C 
ATOM     13  C2  SGN d 505     -13.911  45.053 174.289  0.00  0.00     0.157 C 
BRANCH  10  14
ATOM     14  C6  SGN d 505     -11.968  46.583 170.902  0.00  0.00     0.227 C 
BRANCH  14  15
ATOM     15  O6  SGN d 505     -11.375  47.837 170.889  0.00  0.00    -0.254 OA
BRANCH  15  16
ATOM     16  S2  SGN d 505     -10.719  48.534 169.707  0.00  0.00     0.251 S 
ATOM     17  O5S SGN d 505      -9.809  49.480 170.304  0.00  0.00    -0.572 OA
ATOM     18  O4S SGN d 505     -11.814  49.134 168.979  0.00  0.00    -0.572 OA
ATOM     19  O6S SGN d 505     -10.030  47.506 168.939  0.00  0.00    -0.572 OA
ENDBRANCH  15  16
ENDBRANCH  14  15
ENDBRANCH  10  14
BRANCH  11  20
ATOM     20  O4  SGN d 505     -10.425  45.470 172.896  0.00  0.00    -0.348 OA
BRANCH  20  21
ATOM     21  C1  IDS d 506      -9.522  44.500 172.489  0.00  0.00     0.294 C 
ATOM     22  C2  IDS d 506      -8.101  45.072 172.587  0.00  0.00     0.231 C 
ATOM     23  C3  IDS d 506      -7.039  44.212 171.847  0.00  0.00     0.185 C 
ATOM     24  C4  IDS d 506      -7.548  43.600 170.524  0.00  0.00     0.189 C 
ATOM     25  C5  IDS d 506      -9.006  43.151 170.659  0.00  0.00     0.256 C 
ATOM     26  O5  IDS d 506      -9.785  44.196 171.142  0.00  0.00    -0.340 OA
BRANCH  22  27
ATOM     27  O2  IDS d 506      -8.055  46.363 172.011  0.00  0.00    -0.244 OA
BRANCH  27  28
ATOM     28  S   IDS d 506      -7.575  47.722 172.680  0.00  0.00     0.252 S 
ATOM     29  O1S IDS d 506      -6.979  48.469 171.615  0.00  0.00    -0.572 OA
ATOM     30  O2S IDS d 506      -8.731  48.397 173.199  0.00  0.00    -0.572 OA
ATOM     31  O3S IDS d 506      -6.629  47.337 173.705  0.00  0.00    -0.572 OA
ENDBRANCH  27  28
ENDBRANCH  22  27
BRANCH  23  32
ATOM     32  O3  IDS d 506      -6.634  43.152 172.710  0.00  0.00    -0.390 OA
ATOM     33  H   IDS d 506      -6.803  42.300 172.277  0.00  0.00     0.210 HD
ENDBRANCH  23  32
BRANCH  24  34
ATOM     34  O4  IDS d 506      -7.447  44.599 169.536  0.00  0.00    -0.390 OA
ATOM     35  H   IDS d 506      -8.227  45.174 169.577  0.00  0.00     0.210 HD
ENDBRANCH  24  34
BRANCH  25  36
ATOM     36  C6  IDS d 506      -9.656  42.571 169.417  0.00  0.00     0.206 C 
ATOM     37  O62 IDS d 506      -9.004  42.044 168.532  0.00  0.00    -0.646 OA
ATOM     38  O61 IDS d 506     -10.872  42.611 169.287  0.00  0.00    -0.646 OA
ENDBRANCH  25  36
ENDBRANCH  20  21
ENDBRANCH  11  20
BRANCH  12  39
ATOM     39  O3  SGN d 505     -11.877  44.115 175.168  0.00  0.00    -0.391 OA
ATOM     40  H   SGN d 505     -12.392  43.994 175.982  0.00  0.00     0.210 HD
ENDBRANCH  12  39
BRANCH  13  41
ATOM     41  N   SGN d 505     -14.671  44.956 175.557  0.00  0.00    -0.210 NA
ATOM     42  H   SGN d 505     -15.457  45.605 175.493  0.00  0.00     0.140 HD
BRANCH  41  43
ATOM     43  S1  SGN d 505     -15.292  43.457 175.975  0.00  0.00     0.156 S 
BRANCH  43  44
ATOM     44  O3S SGN d 505     -16.604  43.387 175.437  0.00  0.00    -0.296 OA
ATOM     45  H   SGN d 505     -16.732  42.527 175.007  0.00  0.00     0.231 HD
ENDBRANCH  43  44
BRANCH  43  46
ATOM     46  O1S SGN d 505     -14.404  42.449 175.434  0.00  0.00    -0.296 OA
ATOM     47  H   SGN d 505     -14.837  41.583 175.473  0.00  0.00     0.231 HD
ENDBRANCH  43  46
BRANCH  43  48
ATOM     48  O2S SGN d 505     -15.315  43.453 177.419  0.00  0.00    -0.296 OA
ATOM     49  H   SGN d 505     -14.528  42.996 177.754  0.00  0.00     0.231 HD
ENDBRANCH  43  48
ENDBRANCH  41  43
ENDBRANCH  13  41
ENDBRANCH   7   8
ENDBRANCH   2   7
BRANCH   1  50
ATOM     50  O3  IDS d 504     -17.072  49.199 172.442  0.00  0.00    -0.390 OA
ATOM     51  H   IDS d 504     -17.234  50.038 172.903  0.00  0.00     0.210 HD
ENDBRANCH   1  50
BRANCH   6  52
ATOM     52  C6  IDS d 504     -13.229  50.225 174.004  0.00  0.00     0.206 C 
ATOM     53  O62 IDS d 504     -12.893  51.390 174.230  0.00  0.00    -0.646 OA
ATOM     54  O61 IDS d 504     -12.350  49.417 173.735  0.00  0.00    -0.646 OA
ENDBRANCH   6  52
BRANCH   5  55
ATOM     55  O2  IDS d 504     -16.889  47.352 175.623  0.00  0.00    -0.244 OA
BRANCH  55  56
ATOM     56  S   IDS d 504     -17.924  46.537 176.419  0.00  0.00     0.252 S 
ATOM     57  O2S IDS d 504     -18.710  47.461 177.182  0.00  0.00    -0.572 OA
ATOM     58  O3S IDS d 504     -18.636  45.834 175.418  0.00  0.00    -0.572 OA
ATOM     59  O1S IDS d 504     -17.186  45.663 177.256  0.00  0.00    -0.572 OA
ENDBRANCH  55  56
ENDBRANCH   5  55
BRANCH   3  60
ATOM     60  O4  SGN d 503     -17.259  50.833 174.926  0.00  0.00    -0.348 OA
BRANCH  60  61
ATOM     61  C4  SGN d 503     -17.289  51.936 175.772  0.00  0.00     0.186 C 
ATOM     62  C5  SGN d 503     -18.751  52.218 176.163  0.00  0.00     0.181 C 
ATOM     63  O5  SGN d 503     -18.849  53.380 176.926  0.00  0.00    -0.349 OA
ATOM     64  C1  SGN d 503     -18.417  54.532 176.246  0.00  0.00     0.282 C 
ATOM     65  C2  SGN d 503     -16.938  54.378 175.863  0.00  0.00     0.157 C 
ATOM     66  C3  SGN d 503     -16.704  53.133 175.026  0.00  0.00     0.173 C 
BRANCH  62  67
ATOM     67  C6  SGN d 503     -19.384  51.151 177.014  0.00  0.00     0.227 C 
BRANCH  67  68
ATOM     68  O6  SGN d 503     -20.740  51.055 176.636  0.00  0.00    -0.254 OA
BRANCH  68  69
ATOM     69  S2  SGN d 503     -21.462  49.759 176.182  0.00  0.00     0.251 S 
ATOM     70  O6S SGN d 503     -22.686  50.223 175.656  0.00  0.00    -0.572 OA
ATOM     71  O4S SGN d 503     -20.686  49.152 175.154  0.00  0.00    -0.572 OA
ATOM     72  O5S SGN d 503     -21.578  48.900 177.357  0.00  0.00    -0.572 OA
ENDBRANCH  68  69
ENDBRANCH  67  68
ENDBRANCH  62  67
BRANCH  64  73
ATOM     73  O4  IDS d 502     -19.204  54.785 175.114  0.00  0.00    -0.348 OA
BRANCH  73  74
ATOM     74  C4  IDS d 502     -20.295  55.642 175.335  0.00  0.00     0.195 C 
ATOM     75  C3  IDS d 502     -19.893  57.089 174.989  0.00  0.00     0.185 C 
ATOM     76  C2  IDS d 502     -19.705  57.259 173.479  0.00  0.00     0.231 C 
ATOM     77  C1  IDS d 502     -20.873  56.674 172.691  0.00  0.00     0.291 C 
ATOM     78  O5  IDS d 502     -21.150  55.356 173.092  0.00  0.00    -0.340 OA
ATOM     79  C5  IDS d 502     -21.469  55.207 174.461  0.00  0.00     0.257 C 
BRANCH  75  80
ATOM     80  O3  IDS d 502     -20.925  57.963 175.404  0.00  0.00    -0.390 OA
ATOM     81  H   IDS d 502     -21.224  58.491 174.648  0.00  0.00     0.210 HD
ENDBRANCH  75  80
BRANCH  76  82
ATOM     82  O2  IDS d 502     -18.544  56.558 173.122  0.00  0.00    -0.244 OA
BRANCH  82  83
ATOM     83  S   IDS d 502     -17.533  56.900 171.979  0.00  0.00     0.252 S 
ATOM     84  O3S IDS d 502     -16.328  57.296 172.661  0.00  0.00    -0.572 OA
ATOM     85  O2S IDS d 502     -18.145  57.961 171.214  0.00  0.00    -0.572 OA
ATOM     86  O1S IDS d 502     -17.347  55.705 171.203  0.00  0.00    -0.572 OA
ENDBRANCH  82  83
ENDBRANCH  76  82
BRANCH  77  87
ATOM     87  O1  IDS d 502     -21.973  57.529 172.851  0.00  0.00    -0.368 OA
ATOM     88  H   IDS d 502     -22.517  57.510 172.047  0.00  0.00     0.212 HD
ENDBRANCH  77  87
BRANCH  79  89
ATOM     89  C6  IDS d 502     -21.971  53.799 174.747  0.00  0.00     0.206 C 
ATOM     90  O61 IDS d 502     -22.644  53.559 175.720  0.00  0.00    -0.646 OA
ATOM     91  O62 IDS d 502     -21.712  52.877 173.998  0.00  0.00    -0.646 OA
ENDBRANCH  79  89
ENDBRANCH  73  74
ENDBRANCH  64  73
BRANCH  65  92
ATOM     92  N   SGN d 503     -16.462  55.570 175.183  0.00  0.00    -0.210 NA
ATOM     93  H   SGN d 503     -17.225  56.246 175.183  0.00  0.00     0.140 HD
BRANCH  92  94
ATOM     94  S1  SGN d 503     -15.152  56.314 175.798  0.00  0.00     0.156 S 
BRANCH  94  95
ATOM     95  O2S SGN d 503     -15.110  56.052 177.235  0.00  0.00    -0.296 OA
ATOM     96  H   SGN d 503     -14.692  55.191 177.395  0.00  0.00     0.231 HD
ENDBRANCH  94  95
BRANCH  94  97
ATOM     97  O1S SGN d 503     -15.315  57.726 175.506  0.00  0.00    -0.296 OA
ATOM     98  H   SGN d 503     -16.252  57.964 175.576  0.00  0.00     0.231 HD
ENDBRANCH  94  97
BRANCH  94  99
ATOM     99  O3S SGN d 503     -14.058  55.720 175.063  0.00  0.00    -0.296 OA
ATOM    100  H   SGN d 503     -13.952  56.179 174.215  0.00  0.00     0.231 HD
ENDBRANCH  94  99
ENDBRANCH  92  94
ENDBRANCH  65  92
BRANCH  66 101
ATOM    101  O3  SGN d 503     -15.315  52.915 174.865  0.00  0.00    -0.391 OA
ATOM    102  H   SGN d 503     -14.825  53.504 175.459  0.00  0.00     0.210 HD
ENDBRANCH  66 101
ENDBRANCH  60  61
ENDBRANCH   3  60
TORSDOF 40
ENDMDL
MODEL 44
REMARK VINA RESULT:      -2.8      4.624      8.045
REMARK WARNING: 32 MAX_TORS EXCEEDED!!!
REMARK  40 active torsions:
REMARK  status: ('A' for Active; 'I' for Inactive)
REMARK    1 I    between atoms: C6_1  and  C5_8 
REMARK    2 I    between atoms: C6_1  and  O6_57 
REMARK    3 I    between atoms: O4_2  and  C4_49 
REMARK    4 I    between atoms: O6_3  and  C6_7 
REMARK    5 I    between atoms: O6_3  and  S2_58 
REMARK    6 I    between atoms: S_4  and  O2_6 
REMARK    7 I    between atoms: O3_5  and  C3_81 
REMARK    8 I    between atoms: O2_6  and  C2_11 
REMARK    9 I    between atoms: C6_7  and  C5_54 
REMARK   10 I    between atoms: O4_9  and  C4_32 
REMARK   11 I    between atoms: O4_9  and  C1_39 
REMARK   12 I    between atoms: O3_12  and  C3_18 
REMARK   13 I    between atoms: N_13  and  C2_52 
REMARK   14 I    between atoms: N_13  and  S1_45 
REMARK   15 I    between atoms: O3_17  and  C3_83 
REMARK   16 I    between atoms: C4_20  and  O4_44 
REMARK   17 I    between atoms: N_21  and  C2_66 
REMARK   18 I    between atoms: N_21  and  S1_53 
REMARK   19 I    between atoms: O3_22  and  C3_65 
REMARK   20 I    between atoms: C4_23  and  O4_74 
REMARK   21 I    between atoms: C1_25  and  O1_72 
REMARK   22 I    between atoms: C2_28  and  O2_69 
REMARK   23 I    between atoms: C4_33  and  O4_61 
REMARK   24 I    between atoms: O2S_34  and  S1_45 
REMARK   25 I    between atoms: C6_37  and  C5_47 
REMARK   26 I    between atoms: O2_38  and  C2_77 
REMARK   27 I    between atoms: O2_38  and  S_50 
REMARK   28 I    between atoms: O3S_40  and  S1_53 
REMARK   29 I    between atoms: O1S_42  and  S1_45 
REMARK   30 I    between atoms: O1S_43  and  S1_53 
REMARK   31 I    between atoms: O4_44  and  C1_46 
REMARK   32 I    between atoms: S1_45  and  O3S_60 
REMARK   33 I    between atoms: C6_48  and  C5_84 
REMARK   34 I    between atoms: C6_51  and  C5_87 
REMARK   35 I    between atoms: S1_53  and  O2S_55 
REMARK   36 I    between atoms: C1_56  and  O4_74 
REMARK   37 I    between atoms: O6_57  and  S2_82 
REMARK   38 I    between atoms: O4_61  and  C1_70 
REMARK   39 I    between atoms: C3_63  and  O3_79 
REMARK   40 I    between atoms: O2_69  and  S_76 
ROOT
ATOM      1  C3  IDS d 504     -17.215  51.840 176.264  0.00  0.00     0.185 C 
ATOM      2  C4  IDS d 504     -16.052  51.328 175.428  0.00  0.00     0.195 C 
ATOM      3  C1  IDS d 504     -18.712  51.410 174.219  0.00  0.00     0.294 C 
ATOM      4  O5  IDS d 504     -17.520  50.982 173.552  0.00  0.00    -0.340 OA
ATOM      5  C2  IDS d 504     -18.401  52.355 175.362  0.00  0.00     0.231 C 
ATOM      6  C5  IDS d 504     -16.584  50.342 174.390  0.00  0.00     0.257 C 
ENDROOT
BRANCH   2   7
ATOM      7  O4  IDS d 504     -15.419  52.423 174.784  0.00  0.00    -0.348 OA
BRANCH   7   8
ATOM      8  C1  SGN d 505     -14.594  53.179 175.629  0.00  0.00     0.282 C 
ATOM      9  O5  SGN d 505     -13.720  52.343 176.333  0.00  0.00    -0.349 OA
ATOM     10  C5  SGN d 505     -12.813  51.665 175.519  0.00  0.00     0.181 C 
ATOM     11  C4  SGN d 505     -11.893  52.632 174.848  0.00  0.00     0.186 C 
ATOM     12  C3  SGN d 505     -12.776  53.518 173.922  0.00  0.00     0.173 C 
ATOM     13  C2  SGN d 505     -13.794  54.207 174.853  0.00  0.00     0.157 C 
BRANCH  10  14
ATOM     14  C6  SGN d 505     -12.095  50.701 176.406  0.00  0.00     0.227 C 
BRANCH  14  15
ATOM     15  O6  SGN d 505     -12.975  50.436 177.444  0.00  0.00    -0.254 OA
BRANCH  15  16
ATOM     16  S2  SGN d 505     -13.569  49.088 177.827  0.00  0.00     0.251 S 
ATOM     17  O5S SGN d 505     -14.996  49.291 177.766  0.00  0.00    -0.572 OA
ATOM     18  O4S SGN d 505     -13.058  48.825 179.153  0.00  0.00    -0.572 OA
ATOM     19  O6S SGN d 505     -13.101  48.123 176.841  0.00  0.00    -0.572 OA
ENDBRANCH  15  16
ENDBRANCH  14  15
ENDBRANCH  10  14
BRANCH  11  20
ATOM     20  O4  SGN d 505     -10.921  51.845 174.192  0.00  0.00    -0.348 OA
BRANCH  20  21
ATOM     21  C1  IDS d 506      -9.566  52.143 174.192  0.00  0.00     0.294 C 
ATOM     22  C2  IDS d 506      -8.838  51.140 173.285  0.00  0.00     0.231 C 
ATOM     23  C3  IDS d 506      -7.294  51.156 173.466  0.00  0.00     0.185 C 
ATOM     24  C4  IDS d 506      -6.843  51.362 174.928  0.00  0.00     0.189 C 
ATOM     25  C5  IDS d 506      -7.755  52.365 175.641  0.00  0.00     0.256 C 
ATOM     26  O5  IDS d 506      -9.084  51.986 175.502  0.00  0.00    -0.340 OA
BRANCH  22  27
ATOM     27  O2  IDS d 506      -9.270  49.824 173.569  0.00  0.00    -0.244 OA
BRANCH  27  28
ATOM     28  S   IDS d 506      -9.921  48.767 172.577  0.00  0.00     0.252 S 
ATOM     29  O1S IDS d 506      -9.732  49.317 171.271  0.00  0.00    -0.572 OA
ATOM     30  O2S IDS d 506      -9.214  47.526 172.721  0.00  0.00    -0.572 OA
ATOM     31  O3S IDS d 506     -11.313  48.679 172.964  0.00  0.00    -0.572 OA
ENDBRANCH  27  28
ENDBRANCH  22  27
BRANCH  23  32
ATOM     32  O3  IDS d 506      -6.756  52.210 172.673  0.00  0.00    -0.390 OA
ATOM     33  H   IDS d 506      -5.964  52.568 173.105  0.00  0.00     0.210 HD
ENDBRANCH  23  32
BRANCH  24  34
ATOM     34  O4  IDS d 506      -6.920  50.110 175.570  0.00  0.00    -0.390 OA
ATOM     35  H   IDS d 506      -7.617  50.134 176.244  0.00  0.00     0.210 HD
ENDBRANCH  24  34
BRANCH  25  36
ATOM     36  C6  IDS d 506      -7.458  52.631 177.105  0.00  0.00     0.206 C 
ATOM     37  O62 IDS d 506      -7.455  51.740 177.936  0.00  0.00    -0.646 OA
ATOM     38  O61 IDS d 506      -7.196  53.766 177.480  0.00  0.00    -0.646 OA
ENDBRANCH  25  36
ENDBRANCH  20  21
ENDBRANCH  11  20
BRANCH  12  39
ATOM     39  O3  SGN d 505     -11.990  54.521 173.292  0.00  0.00    -0.391 OA
ATOM     40  H   SGN d 505     -11.160  54.636 173.782  0.00  0.00     0.210 HD
ENDBRANCH  12  39
BRANCH  13  41
ATOM     41  N   SGN d 505     -14.722  55.150 174.188  0.00  0.00    -0.210 NA
ATOM     42  H   SGN d 505     -15.672  54.844 174.398  0.00  0.00     0.140 HD
BRANCH  41  43
ATOM     43  S1  SGN d 505     -14.614  56.769 174.610  0.00  0.00     0.156 S 
BRANCH  43  44
ATOM     44  O3S SGN d 505     -13.525  57.315 173.881  0.00  0.00    -0.296 OA
ATOM     45  H   SGN d 505     -13.806  58.135 173.446  0.00  0.00     0.231 HD
ENDBRANCH  43  44
BRANCH  43  46
ATOM     46  O1S SGN d 505     -15.880  57.391 174.287  0.00  0.00    -0.296 OA
ATOM     47  H   SGN d 505     -16.218  57.860 175.066  0.00  0.00     0.231 HD
ENDBRANCH  43  46
BRANCH  43  48
ATOM     48  O2S SGN d 505     -14.347  56.766 176.030  0.00  0.00    -0.296 OA
ATOM     49  H   SGN d 505     -14.318  55.852 176.352  0.00  0.00     0.231 HD
ENDBRANCH  43  48
ENDBRANCH  41  43
ENDBRANCH  13  41
ENDBRANCH   7   8
ENDBRANCH   2   7
BRANCH   1  50
ATOM     50  O3  IDS d 504     -17.663  50.754 177.067  0.00  0.00    -0.390 OA
ATOM     51  H   IDS d 504     -17.402  49.917 176.652  0.00  0.00     0.210 HD
ENDBRANCH   1  50
BRANCH   6  52
ATOM     52  C6  IDS d 504     -15.508  49.634 173.551  0.00  0.00     0.206 C 
ATOM     53  O62 IDS d 504     -15.664  49.445 172.342  0.00  0.00    -0.646 OA
ATOM     54  O61 IDS d 504     -14.476  49.223 174.067  0.00  0.00    -0.646 OA
ENDBRANCH   6  52
BRANCH   5  55
ATOM     55  O2  IDS d 504     -18.090  53.635 174.813  0.00  0.00    -0.244 OA
BRANCH  55  56
ATOM     56  S   IDS d 504     -18.345  55.003 175.470  0.00  0.00     0.252 S 
ATOM     57  O2S IDS d 504     -19.520  54.883 176.282  0.00  0.00    -0.572 OA
ATOM     58  O3S IDS d 504     -17.150  55.257 176.185  0.00  0.00    -0.572 OA
ATOM     59  O1S IDS d 504     -18.534  55.926 174.411  0.00  0.00    -0.572 OA
ENDBRANCH  55  56
ENDBRANCH   5  55
BRANCH   3  60
ATOM     60  O4  SGN d 503     -19.456  50.339 174.725  0.00  0.00    -0.348 OA
BRANCH  60  61
ATOM     61  C4  SGN d 503     -20.303  49.748 173.794  0.00  0.00     0.186 C 
ATOM     62  C5  SGN d 503     -21.727  49.711 174.375  0.00  0.00     0.181 C 
ATOM     63  O5  SGN d 503     -22.597  49.033 173.525  0.00  0.00    -0.349 OA
ATOM     64  C1  SGN d 503     -22.244  47.687 173.323  0.00  0.00     0.282 C 
ATOM     65  C2  SGN d 503     -20.850  47.613 172.681  0.00  0.00     0.157 C 
ATOM     66  C3  SGN d 503     -19.809  48.329 173.522  0.00  0.00     0.173 C 
BRANCH  62  67
ATOM     67  C6  SGN d 503     -22.358  51.065 174.561  0.00  0.00     0.227 C 
BRANCH  67  68
ATOM     68  O6  SGN d 503     -22.105  51.816 173.393  0.00  0.00    -0.254 OA
BRANCH  68  69
ATOM     69  S2  SGN d 503     -23.184  52.447 172.474  0.00  0.00     0.251 S 
ATOM     70  O6S SGN d 503     -22.529  53.556 171.899  0.00  0.00    -0.572 OA
ATOM     71  O4S SGN d 503     -23.521  51.500 171.466  0.00  0.00    -0.572 OA
ATOM     72  O5S SGN d 503     -24.328  52.774 173.320  0.00  0.00    -0.572 OA
ENDBRANCH  68  69
ENDBRANCH  67  68
ENDBRANCH  62  67
BRANCH  64  73
ATOM     73  O4  IDS d 502     -22.283  46.961 174.521  0.00  0.00    -0.348 OA
BRANCH  73  74
ATOM     74  C4  IDS d 502     -23.552  46.475 174.873  0.00  0.00     0.195 C 
ATOM     75  C3  IDS d 502     -23.736  45.053 174.310  0.00  0.00     0.185 C 
ATOM     76  C2  IDS d 502     -22.840  44.052 175.045  0.00  0.00     0.231 C 
ATOM     77  C1  IDS d 502     -22.946  44.199 176.560  0.00  0.00     0.291 C 
ATOM     78  O5  IDS d 502     -22.765  45.535 176.958  0.00  0.00    -0.340 OA
ATOM     79  C5  IDS d 502     -23.683  46.451 176.395  0.00  0.00     0.257 C 
BRANCH  75  80
ATOM     80  O3  IDS d 502     -25.081  44.656 174.496  0.00  0.00    -0.390 OA
ATOM     81  H   IDS d 502     -25.131  44.014 175.221  0.00  0.00     0.210 HD
ENDBRANCH  75  80
BRANCH  76  82
ATOM     82  O2  IDS d 502     -21.516  44.328 174.673  0.00  0.00    -0.244 OA
BRANCH  82  83
ATOM     83  S   IDS d 502     -20.296  43.348 174.679  0.00  0.00     0.252 S 
ATOM     84  O3S IDS d 502     -19.478  43.786 175.780  0.00  0.00    -0.572 OA
ATOM     85  O2S IDS d 502     -19.664  43.498 173.388  0.00  0.00    -0.572 OA
ATOM     86  O1S IDS d 502     -20.814  42.024 174.883  0.00  0.00    -0.572 OA
ENDBRANCH  82  83
ENDBRANCH  76  82
BRANCH  77  87
ATOM     87  O1  IDS d 502     -24.187  43.682 176.958  0.00  0.00    -0.368 OA
ATOM     88  H   IDS d 502     -24.049  42.875 177.479  0.00  0.00     0.212 HD
ENDBRANCH  77  87
BRANCH  79  89
ATOM     89  C6  IDS d 502     -23.553  47.817 177.054  0.00  0.00     0.206 C 
ATOM     90  O61 IDS d 502     -22.687  48.043 177.863  0.00  0.00    -0.646 OA
ATOM     91  O62 IDS d 502     -24.319  48.720 176.778  0.00  0.00    -0.646 OA
ENDBRANCH  79  89
ENDBRANCH  73  74
ENDBRANCH  64  73
BRANCH  65  92
ATOM     92  N   SGN d 503     -20.476  46.232 172.437  0.00  0.00    -0.210 NA
ATOM     93  H   SGN d 503     -21.337  45.691 172.360  0.00  0.00     0.140 HD
BRANCH  92  94
ATOM     94  S1  SGN d 503     -19.583  45.916 171.114  0.00  0.00     0.156 S 
BRANCH  94  95
ATOM     95  O2S SGN d 503     -19.688  47.060 170.209  0.00  0.00    -0.296 OA
ATOM     96  H   SGN d 503     -20.600  47.134 169.888  0.00  0.00     0.231 HD
ENDBRANCH  94  95
BRANCH  94  97
ATOM     97  O1S SGN d 503     -20.135  44.708 170.531  0.00  0.00    -0.296 OA
ATOM     98  H   SGN d 503     -20.556  44.178 171.226  0.00  0.00     0.231 HD
ENDBRANCH  94  97
BRANCH  94  99
ATOM     99  O3S SGN d 503     -18.255  45.715 171.650  0.00  0.00    -0.296 OA
ATOM    100  H   SGN d 503     -17.597  45.988 170.993  0.00  0.00     0.231 HD
ENDBRANCH  94  99
ENDBRANCH  92  94
ENDBRANCH  65  92
BRANCH  66 101
ATOM    101  O3  SGN d 503     -18.590  48.415 172.809  0.00  0.00    -0.391 OA
ATOM    102  H   SGN d 503     -18.701  49.008 172.049  0.00  0.00     0.210 HD
ENDBRANCH  66 101
ENDBRANCH  60  61
ENDBRANCH   3  60
TORSDOF 40
ENDMDL
MODEL 45
REMARK VINA RESULT:      -2.7      3.075      7.178
REMARK WARNING: 32 MAX_TORS EXCEEDED!!!
REMARK  40 active torsions:
REMARK  status: ('A' for Active; 'I' for Inactive)
REMARK    1 I    between atoms: C6_1  and  C5_8 
REMARK    2 I    between atoms: C6_1  and  O6_57 
REMARK    3 I    between atoms: O4_2  and  C4_49 
REMARK    4 I    between atoms: O6_3  and  C6_7 
REMARK    5 I    between atoms: O6_3  and  S2_58 
REMARK    6 I    between atoms: S_4  and  O2_6 
REMARK    7 I    between atoms: O3_5  and  C3_81 
REMARK    8 I    between atoms: O2_6  and  C2_11 
REMARK    9 I    between atoms: C6_7  and  C5_54 
REMARK   10 I    between atoms: O4_9  and  C4_32 
REMARK   11 I    between atoms: O4_9  and  C1_39 
REMARK   12 I    between atoms: O3_12  and  C3_18 
REMARK   13 I    between atoms: N_13  and  C2_52 
REMARK   14 I    between atoms: N_13  and  S1_45 
REMARK   15 I    between atoms: O3_17  and  C3_83 
REMARK   16 I    between atoms: C4_20  and  O4_44 
REMARK   17 I    between atoms: N_21  and  C2_66 
REMARK   18 I    between atoms: N_21  and  S1_53 
REMARK   19 I    between atoms: O3_22  and  C3_65 
REMARK   20 I    between atoms: C4_23  and  O4_74 
REMARK   21 I    between atoms: C1_25  and  O1_72 
REMARK   22 I    between atoms: C2_28  and  O2_69 
REMARK   23 I    between atoms: C4_33  and  O4_61 
REMARK   24 I    between atoms: O2S_34  and  S1_45 
REMARK   25 I    between atoms: C6_37  and  C5_47 
REMARK   26 I    between atoms: O2_38  and  C2_77 
REMARK   27 I    between atoms: O2_38  and  S_50 
REMARK   28 I    between atoms: O3S_40  and  S1_53 
REMARK   29 I    between atoms: O1S_42  and  S1_45 
REMARK   30 I    between atoms: O1S_43  and  S1_53 
REMARK   31 I    between atoms: O4_44  and  C1_46 
REMARK   32 I    between atoms: S1_45  and  O3S_60 
REMARK   33 I    between atoms: C6_48  and  C5_84 
REMARK   34 I    between atoms: C6_51  and  C5_87 
REMARK   35 I    between atoms: S1_53  and  O2S_55 
REMARK   36 I    between atoms: C1_56  and  O4_74 
REMARK   37 I    between atoms: O6_57  and  S2_82 
REMARK   38 I    between atoms: O4_61  and  C1_70 
REMARK   39 I    between atoms: C3_63  and  O3_79 
REMARK   40 I    between atoms: O2_69  and  S_76 
ROOT
ATOM      1  C3  IDS d 504     -15.031  47.073 171.180  0.00  0.00     0.185 C 
ATOM      2  C4  IDS d 504     -13.613  47.282 171.688  0.00  0.00     0.195 C 
ATOM      3  C1  IDS d 504     -15.806  47.310 173.620  0.00  0.00     0.294 C 
ATOM      4  O5  IDS d 504     -14.421  47.463 173.948  0.00  0.00    -0.340 OA
ATOM      5  C2  IDS d 504     -15.989  46.553 172.320  0.00  0.00     0.231 C 
ATOM      6  C5  IDS d 504     -13.661  48.124 172.961  0.00  0.00     0.257 C 
ENDROOT
BRANCH   2   7
ATOM      7  O4  IDS d 504     -13.020  46.020 171.958  0.00  0.00    -0.348 OA
BRANCH   7   8
ATOM      8  C1  SGN d 505     -12.710  45.282 170.807  0.00  0.00     0.282 C 
ATOM      9  O5  SGN d 505     -11.675  45.899 170.095  0.00  0.00    -0.349 OA
ATOM     10  C5  SGN d 505     -10.465  45.942 170.787  0.00  0.00     0.181 C 
ATOM     11  C4  SGN d 505      -9.945  44.560 171.013  0.00  0.00     0.186 C 
ATOM     12  C3  SGN d 505     -10.978  43.840 171.928  0.00  0.00     0.173 C 
ATOM     13  C2  SGN d 505     -12.308  43.860 171.149  0.00  0.00     0.157 C 
BRANCH  10  14
ATOM     14  C6  SGN d 505      -9.542  46.781 169.965  0.00  0.00     0.227 C 
BRANCH  14  15
ATOM     15  O6  SGN d 505      -9.039  47.733 170.839  0.00  0.00    -0.254 OA
BRANCH  15  16
ATOM     16  S2  SGN d 505      -8.039  48.836 170.526  0.00  0.00     0.251 S 
ATOM     17  O5S SGN d 505      -7.853  49.523 171.779  0.00  0.00    -0.572 OA
ATOM     18  O4S SGN d 505      -8.676  49.627 169.497  0.00  0.00    -0.572 OA
ATOM     19  O6S SGN d 505      -6.822  48.185 170.061  0.00  0.00    -0.572 OA
ENDBRANCH  15  16
ENDBRANCH  14  15
ENDBRANCH  10  14
BRANCH  11  20
ATOM     20  O4  SGN d 505      -8.653  44.719 171.562  0.00  0.00    -0.348 OA
BRANCH  20  21
ATOM     21  C1  IDS d 506      -7.509  44.174 170.999  0.00  0.00     0.294 C 
ATOM     22  C2  IDS d 506      -6.295  44.585 171.845  0.00  0.00     0.231 C 
ATOM     23  C3  IDS d 506      -4.936  44.325 171.138  0.00  0.00     0.185 C 
ATOM     24  C4  IDS d 506      -4.963  44.603 169.620  0.00  0.00     0.189 C 
ATOM     25  C5  IDS d 506      -6.295  44.155 169.009  0.00  0.00     0.256 C 
ATOM     26  O5  IDS d 506      -7.355  44.716 169.711  0.00  0.00    -0.340 OA
BRANCH  22  27
ATOM     27  O2  IDS d 506      -6.349  45.969 172.133  0.00  0.00    -0.244 OA
BRANCH  27  28
ATOM     28  S   IDS d 506      -6.286  46.682 173.551  0.00  0.00     0.252 S 
ATOM     29  O1S IDS d 506      -7.647  46.976 173.880  0.00  0.00    -0.572 OA
ATOM     30  O2S IDS d 506      -5.716  45.758 174.491  0.00  0.00    -0.572 OA
ATOM     31  O3S IDS d 506      -5.478  47.866 173.354  0.00  0.00    -0.572 OA
ENDBRANCH  27  28
ENDBRANCH  22  27
BRANCH  23  32
ATOM     32  O3  IDS d 506      -4.573  42.963 171.343  0.00  0.00    -0.390 OA
ATOM     33  H   IDS d 506      -3.653  42.916 171.649  0.00  0.00     0.210 HD
ENDBRANCH  23  32
BRANCH  24  34
ATOM     34  O4  IDS d 506      -4.804  45.992 169.446  0.00  0.00    -0.390 OA
ATOM     35  H   IDS d 506      -5.656  46.388 169.206  0.00  0.00     0.210 HD
ENDBRANCH  24  34
BRANCH  25  36
ATOM     36  C6  IDS d 506      -6.482  44.411 167.525  0.00  0.00     0.206 C 
ATOM     37  O62 IDS d 506      -7.342  45.165 167.103  0.00  0.00    -0.646 OA
ATOM     38  O61 IDS d 506      -5.748  43.866 166.713  0.00  0.00    -0.646 OA
ENDBRANCH  25  36
ENDBRANCH  20  21
ENDBRANCH  11  20
BRANCH  12  39
ATOM     39  O3  SGN d 505     -10.600  42.486 172.139  0.00  0.00    -0.391 OA
ATOM     40  H   SGN d 505      -9.866  42.259 171.547  0.00  0.00     0.210 HD
ENDBRANCH  12  39
BRANCH  13  41
ATOM     41  N   SGN d 505     -13.443  43.178 171.815  0.00  0.00    -0.210 NA
ATOM     42  H   SGN d 505     -13.989  43.892 172.297  0.00  0.00     0.140 HD
BRANCH  41  43
ATOM     43  S1  SGN d 505     -14.498  42.308 170.846  0.00  0.00     0.156 S 
BRANCH  43  44
ATOM     44  O3S SGN d 505     -15.224  41.438 171.702  0.00  0.00    -0.296 OA
ATOM     45  H   SGN d 505     -15.074  40.519 171.431  0.00  0.00     0.231 HD
ENDBRANCH  43  44
BRANCH  43  46
ATOM     46  O1S SGN d 505     -15.344  43.259 170.157  0.00  0.00    -0.296 OA
ATOM     47  H   SGN d 505     -14.857  43.646 169.414  0.00  0.00     0.231 HD
ENDBRANCH  43  46
BRANCH  43  48
ATOM     48  O2S SGN d 505     -13.649  41.568 169.942  0.00  0.00    -0.296 OA
ATOM     49  H   SGN d 505     -13.251  42.178 169.300  0.00  0.00     0.231 HD
ENDBRANCH  43  48
ENDBRANCH  41  43
ENDBRANCH  13  41
ENDBRANCH   7   8
ENDBRANCH   2   7
BRANCH   1  50
ATOM     50  O3  IDS d 504     -15.494  48.330 170.704  0.00  0.00    -0.390 OA
ATOM     51  H   IDS d 504     -16.368  48.517 171.084  0.00  0.00     0.210 HD
ENDBRANCH   1  50
BRANCH   6  52
ATOM     52  C6  IDS d 504     -12.290  48.535 173.525  0.00  0.00     0.206 C 
ATOM     53  O62 IDS d 504     -11.351  48.812 172.776  0.00  0.00    -0.646 OA
ATOM     54  O61 IDS d 504     -12.094  48.579 174.732  0.00  0.00    -0.646 OA
ENDBRANCH   6  52
BRANCH   5  55
ATOM     55  O2  IDS d 504     -15.759  45.168 172.572  0.00  0.00    -0.244 OA
BRANCH  55  56
ATOM     56  S   IDS d 504     -16.722  44.187 173.265  0.00  0.00     0.252 S 
ATOM     57  O2S IDS d 504     -17.481  43.529 172.243  0.00  0.00    -0.572 OA
ATOM     58  O3S IDS d 504     -15.861  43.341 174.005  0.00  0.00    -0.572 OA
ATOM     59  O1S IDS d 504     -17.549  44.968 174.110  0.00  0.00    -0.572 OA
ENDBRANCH  55  56
ENDBRANCH   5  55
BRANCH   3  60
ATOM     60  O4  SGN d 503     -16.469  48.537 173.512  0.00  0.00    -0.348 OA
BRANCH  60  61
ATOM     61  C4  SGN d 503     -17.013  48.994 174.707  0.00  0.00     0.186 C 
ATOM     62  C5  SGN d 503     -18.410  49.575 174.423  0.00  0.00     0.181 C 
ATOM     63  O5  SGN d 503     -18.958  50.144 175.571  0.00  0.00    -0.349 OA
ATOM     64  C1  SGN d 503     -18.204  51.218 176.075  0.00  0.00     0.282 C 
ATOM     65  C2  SGN d 503     -16.799  50.727 176.452  0.00  0.00     0.157 C 
ATOM     66  C3  SGN d 503     -16.098  50.077 175.272  0.00  0.00     0.173 C 
BRANCH  62  67
ATOM     67  C6  SGN d 503     -19.428  48.559 173.981  0.00  0.00     0.227 C 
BRANCH  67  68
ATOM     68  O6  SGN d 503     -19.829  48.901 172.672  0.00  0.00    -0.254 OA
BRANCH  68  69
ATOM     69  S2  SGN d 503     -19.614  48.031 171.405  0.00  0.00     0.251 S 
ATOM     70  O6S SGN d 503     -18.435  48.556 170.834  0.00  0.00    -0.572 OA
ATOM     71  O4S SGN d 503     -19.401  46.685 171.818  0.00  0.00    -0.572 OA
ATOM     72  O5S SGN d 503     -20.813  48.167 170.584  0.00  0.00    -0.572 OA
ENDBRANCH  68  69
ENDBRANCH  67  68
ENDBRANCH  62  67
BRANCH  64  73
ATOM     73  O4  IDS d 502     -18.136  52.274 175.155  0.00  0.00    -0.348 OA
BRANCH  73  74
ATOM     74  C4  IDS d 502     -19.115  53.266 175.324  0.00  0.00     0.195 C 
ATOM     75  C3  IDS d 502     -18.521  54.449 176.112  0.00  0.00     0.185 C 
ATOM     76  C2  IDS d 502     -17.495  55.210 175.267  0.00  0.00     0.231 C 
ATOM     77  C1  IDS d 502     -18.028  55.524 173.872  0.00  0.00     0.291 C 
ATOM     78  O5  IDS d 502     -18.545  54.374 173.252  0.00  0.00    -0.340 OA
ATOM     79  C5  IDS d 502     -19.596  53.743 173.956  0.00  0.00     0.257 C 
BRANCH  75  80
ATOM     80  O3  IDS d 502     -19.563  55.345 176.449  0.00  0.00    -0.390 OA
ATOM     81  H   IDS d 502     -20.327  54.844 176.773  0.00  0.00     0.210 HD
ENDBRANCH  75  80
BRANCH  76  82
ATOM     82  O2  IDS d 502     -16.373  54.381 175.128  0.00  0.00    -0.244 OA
BRANCH  82  83
ATOM     83  S   IDS d 502     -14.919  54.643 175.641  0.00  0.00     0.252 S 
ATOM     84  O3S IDS d 502     -15.065  54.884 177.053  0.00  0.00    -0.572 OA
ATOM     85  O2S IDS d 502     -14.440  55.788 174.901  0.00  0.00    -0.572 OA
ATOM     86  O1S IDS d 502     -14.152  53.459 175.371  0.00  0.00    -0.572 OA
ENDBRANCH  82  83
ENDBRANCH  76  82
BRANCH  77  87
ATOM     87  O1  IDS d 502     -18.980  56.547 173.994  0.00  0.00    -0.368 OA
ATOM     88  H   IDS d 502     -19.749  56.215 174.484  0.00  0.00     0.212 HD
ENDBRANCH  77  87
BRANCH  79  89
ATOM     89  C6  IDS d 502     -20.237  52.655 173.105  0.00  0.00     0.206 C 
ATOM     90  O61 IDS d 502     -19.654  52.168 172.167  0.00  0.00    -0.646 OA
ATOM     91  O62 IDS d 502     -21.354  52.244 173.352  0.00  0.00    -0.646 OA
ENDBRANCH  79  89
ENDBRANCH  73  74
ENDBRANCH  64  73
BRANCH  65  92
ATOM     92  N   SGN d 503     -16.010  51.815 177.002  0.00  0.00    -0.210 NA
ATOM     93  H   SGN d 503     -16.646  52.590 177.189  0.00  0.00     0.140 HD
BRANCH  92  94
ATOM     94  S1  SGN d 503     -15.181  51.526 178.372  0.00  0.00     0.156 S 
BRANCH  94  95
ATOM     95  O2S SGN d 503     -16.005  51.950 179.503  0.00  0.00    -0.296 OA
ATOM     96  H   SGN d 503     -16.218  52.892 179.412  0.00  0.00     0.231 HD
ENDBRANCH  94  95
BRANCH  94  97
ATOM     97  O1S SGN d 503     -13.955  52.296 178.273  0.00  0.00    -0.296 OA
ATOM     98  H   SGN d 503     -13.866  52.647 177.374  0.00  0.00     0.231 HD
ENDBRANCH  94  97
BRANCH  94  99
ATOM     99  O3S SGN d 503     -14.945  50.101 178.322  0.00  0.00    -0.296 OA
ATOM    100  H   SGN d 503     -15.787  49.630 178.422  0.00  0.00     0.231 HD
ENDBRANCH  94  99
ENDBRANCH  92  94
ENDBRANCH  65  92
BRANCH  66 101
ATOM    101  O3  SGN d 503     -14.900  49.461 175.703  0.00  0.00    -0.391 OA
ATOM    102  H   SGN d 503     -14.682  49.767 176.597  0.00  0.00     0.210 HD
ENDBRANCH  66 101
ENDBRANCH  60  61
ENDBRANCH   3  60
TORSDOF 40
ENDMDL
MODEL 46
REMARK VINA RESULT:      -2.7      1.752      2.295
REMARK WARNING: 32 MAX_TORS EXCEEDED!!!
REMARK  40 active torsions:
REMARK  status: ('A' for Active; 'I' for Inactive)
REMARK    1 I    between atoms: C6_1  and  C5_8 
REMARK    2 I    between atoms: C6_1  and  O6_57 
REMARK    3 I    between atoms: O4_2  and  C4_49 
REMARK    4 I    between atoms: O6_3  and  C6_7 
REMARK    5 I    between atoms: O6_3  and  S2_58 
REMARK    6 I    between atoms: S_4  and  O2_6 
REMARK    7 I    between atoms: O3_5  and  C3_81 
REMARK    8 I    between atoms: O2_6  and  C2_11 
REMARK    9 I    between atoms: C6_7  and  C5_54 
REMARK   10 I    between atoms: O4_9  and  C4_32 
REMARK   11 I    between atoms: O4_9  and  C1_39 
REMARK   12 I    between atoms: O3_12  and  C3_18 
REMARK   13 I    between atoms: N_13  and  C2_52 
REMARK   14 I    between atoms: N_13  and  S1_45 
REMARK   15 I    between atoms: O3_17  and  C3_83 
REMARK   16 I    between atoms: C4_20  and  O4_44 
REMARK   17 I    between atoms: N_21  and  C2_66 
REMARK   18 I    between atoms: N_21  and  S1_53 
REMARK   19 I    between atoms: O3_22  and  C3_65 
REMARK   20 I    between atoms: C4_23  and  O4_74 
REMARK   21 I    between atoms: C1_25  and  O1_72 
REMARK   22 I    between atoms: C2_28  and  O2_69 
REMARK   23 I    between atoms: C4_33  and  O4_61 
REMARK   24 I    between atoms: O2S_34  and  S1_45 
REMARK   25 I    between atoms: C6_37  and  C5_47 
REMARK   26 I    between atoms: O2_38  and  C2_77 
REMARK   27 I    between atoms: O2_38  and  S_50 
REMARK   28 I    between atoms: O3S_40  and  S1_53 
REMARK   29 I    between atoms: O1S_42  and  S1_45 
REMARK   30 I    between atoms: O1S_43  and  S1_53 
REMARK   31 I    between atoms: O4_44  and  C1_46 
REMARK   32 I    between atoms: S1_45  and  O3S_60 
REMARK   33 I    between atoms: C6_48  and  C5_84 
REMARK   34 I    between atoms: C6_51  and  C5_87 
REMARK   35 I    between atoms: S1_53  and  O2S_55 
REMARK   36 I    between atoms: C1_56  and  O4_74 
REMARK   37 I    between atoms: O6_57  and  S2_82 
REMARK   38 I    between atoms: O4_61  and  C1_70 
REMARK   39 I    between atoms: C3_63  and  O3_79 
REMARK   40 I    between atoms: O2_69  and  S_76 
ROOT
ATOM      1  C3  IDS d 504     -17.786  50.594 176.197  0.00  0.00     0.185 C 
ATOM      2  C4  IDS d 504     -17.635  49.849 174.880  0.00  0.00     0.195 C 
ATOM      3  C1  IDS d 504     -17.332  52.757 174.882  0.00  0.00     0.294 C 
ATOM      4  O5  IDS d 504     -17.189  51.917 173.732  0.00  0.00    -0.340 OA
ATOM      5  C2  IDS d 504     -17.060  51.994 176.163  0.00  0.00     0.231 C 
ATOM      6  C5  IDS d 504     -18.024  50.782 173.735  0.00  0.00     0.257 C 
ENDROOT
BRANCH   2   7
ATOM      7  O4  IDS d 504     -16.286  49.428 174.731  0.00  0.00    -0.348 OA
BRANCH   7   8
ATOM      8  C1  SGN d 505     -16.028  48.155 175.257  0.00  0.00     0.282 C 
ATOM      9  O5  SGN d 505     -16.280  47.169 174.297  0.00  0.00    -0.349 OA
ATOM     10  C5  SGN d 505     -15.438  47.237 173.187  0.00  0.00     0.181 C 
ATOM     11  C4  SGN d 505     -14.025  46.966 173.590  0.00  0.00     0.186 C 
ATOM     12  C3  SGN d 505     -13.611  48.112 174.559  0.00  0.00     0.173 C 
ATOM     13  C2  SGN d 505     -14.596  48.033 175.741  0.00  0.00     0.157 C 
BRANCH  10  14
ATOM     14  C6  SGN d 505     -15.961  46.242 172.203  0.00  0.00     0.227 C 
BRANCH  14  15
ATOM     15  O6  SGN d 505     -17.182  46.751 171.785  0.00  0.00    -0.254 OA
BRANCH  15  16
ATOM     16  S2  SGN d 505     -17.997  46.316 170.576  0.00  0.00     0.251 S 
ATOM     17  O5S SGN d 505     -17.861  47.402 169.638  0.00  0.00    -0.572 OA
ATOM     18  O4S SGN d 505     -19.336  46.127 171.085  0.00  0.00    -0.572 OA
ATOM     19  O6S SGN d 505     -17.401  45.080 170.087  0.00  0.00    -0.572 OA
ENDBRANCH  15  16
ENDBRANCH  14  15
ENDBRANCH  10  14
BRANCH  11  20
ATOM     20  O4  SGN d 505     -13.290  46.891 172.386  0.00  0.00    -0.348 OA
BRANCH  20  21
ATOM     21  C1  IDS d 506     -12.116  46.166 172.249  0.00  0.00     0.294 C 
ATOM     22  C2  IDS d 506     -11.426  46.580 170.941  0.00  0.00     0.231 C 
ATOM     23  C3  IDS d 506     -10.291  45.610 170.510  0.00  0.00     0.185 C 
ATOM     24  C4  IDS d 506     -10.602  44.125 170.796  0.00  0.00     0.189 C 
ATOM     25  C5  IDS d 506     -11.338  43.971 172.131  0.00  0.00     0.256 C 
ATOM     26  O5  IDS d 506     -12.451  44.804 172.161  0.00  0.00    -0.340 OA
BRANCH  22  27
ATOM     27  O2  IDS d 506     -12.364  46.608 169.884  0.00  0.00    -0.244 OA
BRANCH  27  28
ATOM     28  S   IDS d 506     -12.849  47.857 169.031  0.00  0.00     0.252 S 
ATOM     29  O1S IDS d 506     -12.989  48.921 169.976  0.00  0.00    -0.572 OA
ATOM     30  O2S IDS d 506     -11.832  48.158 168.063  0.00  0.00    -0.572 OA
ATOM     31  O3S IDS d 506     -14.105  47.455 168.434  0.00  0.00    -0.572 OA
ENDBRANCH  27  28
ENDBRANCH  22  27
BRANCH  23  32
ATOM     32  O3  IDS d 506      -9.101  45.966 171.209  0.00  0.00    -0.390 OA
ATOM     33  H   IDS d 506      -8.703  46.746 170.792  0.00  0.00     0.210 HD
ENDBRANCH  23  32
BRANCH  24  34
ATOM     34  O4  IDS d 506     -11.418  43.659 169.746  0.00  0.00    -0.390 OA
ATOM     35  H   IDS d 506     -10.868  43.219 169.080  0.00  0.00     0.210 HD
ENDBRANCH  24  34
BRANCH  25  36
ATOM     36  C6  IDS d 506     -11.752  42.564 172.520  0.00  0.00     0.206 C 
ATOM     37  O62 IDS d 506     -12.526  42.348 173.437  0.00  0.00    -0.646 OA
ATOM     38  O61 IDS d 506     -11.318  41.605 171.898  0.00  0.00    -0.646 OA
ENDBRANCH  25  36
ENDBRANCH  20  21
ENDBRANCH  11  20
BRANCH  12  39
ATOM     39  O3  SGN d 505     -12.295  47.897 175.052  0.00  0.00    -0.391 OA
ATOM     40  H   SGN d 505     -11.706  47.670 174.316  0.00  0.00     0.210 HD
ENDBRANCH  12  39
BRANCH  13  41
ATOM     41  N   SGN d 505     -14.361  49.012 176.828  0.00  0.00    -0.210 NA
ATOM     42  H   SGN d 505     -15.239  49.121 177.336  0.00  0.00     0.140 HD
BRANCH  41  43
ATOM     43  S1  SGN d 505     -13.172  48.650 177.952  0.00  0.00     0.156 S 
BRANCH  43  44
ATOM     44  O3S SGN d 505     -13.039  47.237 177.974  0.00  0.00    -0.296 OA
ATOM     45  H   SGN d 505     -12.212  46.984 177.537  0.00  0.00     0.231 HD
ENDBRANCH  43  44
BRANCH  43  46
ATOM     46  O1S SGN d 505     -11.960  49.326 177.541  0.00  0.00    -0.296 OA
ATOM     47  H   SGN d 505     -11.355  48.686 177.136  0.00  0.00     0.231 HD
ENDBRANCH  43  46
BRANCH  43  48
ATOM     48  O2S SGN d 505     -13.683  49.150 179.208  0.00  0.00    -0.296 OA
ATOM     49  H   SGN d 505     -13.048  49.775 179.590  0.00  0.00     0.231 HD
ENDBRANCH  43  48
ENDBRANCH  41  43
ENDBRANCH  13  41
ENDBRANCH   7   8
ENDBRANCH   2   7
BRANCH   1  50
ATOM     50  O3  IDS d 504     -19.179  50.784 176.412  0.00  0.00    -0.390 OA
ATOM     51  H   IDS d 504     -19.572  49.957 176.731  0.00  0.00     0.210 HD
ENDBRANCH   1  50
BRANCH   6  52
ATOM     52  C6  IDS d 504     -18.051  50.130 172.343  0.00  0.00     0.206 C 
ATOM     53  O62 IDS d 504     -19.090  49.653 171.882  0.00  0.00    -0.646 OA
ATOM     54  O61 IDS d 504     -17.035  50.053 171.664  0.00  0.00    -0.646 OA
ENDBRANCH   6  52
BRANCH   5  55
ATOM     55  O2  IDS d 504     -15.649  51.827 176.295  0.00  0.00    -0.244 OA
BRANCH  55  56
ATOM     56  S   IDS d 504     -14.769  52.323 177.456  0.00  0.00     0.252 S 
ATOM     57  O2S IDS d 504     -13.413  51.970 177.154  0.00  0.00    -0.572 OA
ATOM     58  O3S IDS d 504     -15.026  53.714 177.500  0.00  0.00    -0.572 OA
ATOM     59  O1S IDS d 504     -15.233  51.662 178.621  0.00  0.00    -0.572 OA
ENDBRANCH  55  56
ENDBRANCH   5  55
BRANCH   3  60
ATOM     60  O4  SGN d 503     -18.605  53.329 174.974  0.00  0.00    -0.348 OA
BRANCH  60  61
ATOM     61  C4  SGN d 503     -18.750  54.505 174.246  0.00  0.00     0.186 C 
ATOM     62  C5  SGN d 503     -19.144  55.637 175.211  0.00  0.00     0.181 C 
ATOM     63  O5  SGN d 503     -19.406  56.817 174.518  0.00  0.00    -0.349 OA
ATOM     64  C1  SGN d 503     -20.479  56.708 173.615  0.00  0.00     0.282 C 
ATOM     65  C2  SGN d 503     -20.156  55.637 172.562  0.00  0.00     0.157 C 
ATOM     66  C3  SGN d 503     -19.846  54.297 173.204  0.00  0.00     0.173 C 
BRANCH  62  67
ATOM     67  C6  SGN d 503     -18.075  56.009 176.203  0.00  0.00     0.227 C 
BRANCH  67  68
ATOM     68  O6  SGN d 503     -17.411  57.149 175.703  0.00  0.00    -0.254 OA
BRANCH  68  69
ATOM     69  S2  SGN d 503     -15.914  57.218 175.300  0.00  0.00     0.251 S 
ATOM     70  O6S SGN d 503     -15.838  56.398 174.154  0.00  0.00    -0.572 OA
ATOM     71  O4S SGN d 503     -15.604  58.565 174.959  0.00  0.00    -0.572 OA
ATOM     72  O5S SGN d 503     -15.140  56.754 176.447  0.00  0.00    -0.572 OA
ENDBRANCH  68  69
ENDBRANCH  67  68
ENDBRANCH  62  67
BRANCH  64  73
ATOM     73  O4  IDS d 502     -21.678  56.413 174.278  0.00  0.00    -0.348 OA
BRANCH  73  74
ATOM     74  C4  IDS d 502     -22.532  57.512 174.464  0.00  0.00     0.195 C 
ATOM     75  C3  IDS d 502     -23.614  57.518 173.368  0.00  0.00     0.185 C 
ATOM     76  C2  IDS d 502     -24.600  56.362 173.564  0.00  0.00     0.231 C 
ATOM     77  C1  IDS d 502     -25.095  56.275 175.004  0.00  0.00     0.291 C 
ATOM     78  O5  IDS d 502     -24.025  56.280 175.915  0.00  0.00    -0.340 OA
ATOM     79  C5  IDS d 502     -23.188  57.418 175.840  0.00  0.00     0.257 C 
BRANCH  75  80
ATOM     80  O3  IDS d 502     -24.340  58.730 173.445  0.00  0.00    -0.390 OA
ATOM     81  H   IDS d 502     -24.245  59.107 174.333  0.00  0.00     0.210 HD
ENDBRANCH  75  80
BRANCH  76  82
ATOM     82  O2  IDS d 502     -23.913  55.175 173.268  0.00  0.00    -0.244 OA
BRANCH  82  83
ATOM     83  S   IDS d 502     -24.195  54.171 172.102  0.00  0.00     0.252 S 
ATOM     84  O3S IDS d 502     -25.410  53.498 172.483  0.00  0.00    -0.572 OA
ATOM     85  O2S IDS d 502     -23.042  53.303 172.042  0.00  0.00    -0.572 OA
ATOM     86  O1S IDS d 502     -24.359  54.945 170.904  0.00  0.00    -0.572 OA
ENDBRANCH  82  83
ENDBRANCH  76  82
BRANCH  77  87
ATOM     87  O1  IDS d 502     -25.990  57.335 175.217  0.00  0.00    -0.368 OA
ATOM     88  H   IDS d 502     -25.553  58.174 175.002  0.00  0.00     0.212 HD
ENDBRANCH  77  87
BRANCH  79  89
ATOM     89  C6  IDS d 502     -22.206  57.441 177.003  0.00  0.00     0.206 C 
ATOM     90  O61 IDS d 502     -21.825  58.482 177.481  0.00  0.00    -0.646 OA
ATOM     91  O62 IDS d 502     -21.783  56.409 177.486  0.00  0.00    -0.646 OA
ENDBRANCH  79  89
ENDBRANCH  73  74
ENDBRANCH  64  73
BRANCH  65  92
ATOM     92  N   SGN d 503     -21.239  55.527 171.602  0.00  0.00    -0.210 NA
ATOM     93  H   SGN d 503     -21.908  56.269 171.808  0.00  0.00     0.140 HD
BRANCH  92  94
ATOM     94  S1  SGN d 503     -20.860  55.639 170.023  0.00  0.00     0.156 S 
BRANCH  94  95
ATOM     95  O2S SGN d 503     -19.454  55.271 169.864  0.00  0.00    -0.296 OA
ATOM     96  H   SGN d 503     -18.910  55.810 170.459  0.00  0.00     0.231 HD
ENDBRANCH  94  95
BRANCH  94  97
ATOM     97  O1S SGN d 503     -21.110  57.016 169.644  0.00  0.00    -0.296 OA
ATOM     98  H   SGN d 503     -20.385  57.576 169.965  0.00  0.00     0.231 HD
ENDBRANCH  94  97
BRANCH  94  99
ATOM     99  O3S SGN d 503     -21.780  54.717 169.395  0.00  0.00    -0.296 OA
ATOM    100  H   SGN d 503     -21.851  53.914 169.934  0.00  0.00     0.231 HD
ENDBRANCH  94  99
ENDBRANCH  92  94
ENDBRANCH  65  92
BRANCH  66 101
ATOM    101  O3  SGN d 503     -19.360  53.397 172.227  0.00  0.00    -0.391 OA
ATOM    102  H   SGN d 503     -18.395  53.476 172.165  0.00  0.00     0.210 HD
ENDBRANCH  66 101
ENDBRANCH  60  61
ENDBRANCH   3  60
TORSDOF 40
ENDMDL
MODEL 47
REMARK VINA RESULT:      -2.7      4.731      8.040
REMARK WARNING: 32 MAX_TORS EXCEEDED!!!
REMARK  40 active torsions:
REMARK  status: ('A' for Active; 'I' for Inactive)
REMARK    1 I    between atoms: C6_1  and  C5_8 
REMARK    2 I    between atoms: C6_1  and  O6_57 
REMARK    3 I    between atoms: O4_2  and  C4_49 
REMARK    4 I    between atoms: O6_3  and  C6_7 
REMARK    5 I    between atoms: O6_3  and  S2_58 
REMARK    6 I    between atoms: S_4  and  O2_6 
REMARK    7 I    between atoms: O3_5  and  C3_81 
REMARK    8 I    between atoms: O2_6  and  C2_11 
REMARK    9 I    between atoms: C6_7  and  C5_54 
REMARK   10 I    between atoms: O4_9  and  C4_32 
REMARK   11 I    between atoms: O4_9  and  C1_39 
REMARK   12 I    between atoms: O3_12  and  C3_18 
REMARK   13 I    between atoms: N_13  and  C2_52 
REMARK   14 I    between atoms: N_13  and  S1_45 
REMARK   15 I    between atoms: O3_17  and  C3_83 
REMARK   16 I    between atoms: C4_20  and  O4_44 
REMARK   17 I    between atoms: N_21  and  C2_66 
REMARK   18 I    between atoms: N_21  and  S1_53 
REMARK   19 I    between atoms: O3_22  and  C3_65 
REMARK   20 I    between atoms: C4_23  and  O4_74 
REMARK   21 I    between atoms: C1_25  and  O1_72 
REMARK   22 I    between atoms: C2_28  and  O2_69 
REMARK   23 I    between atoms: C4_33  and  O4_61 
REMARK   24 I    between atoms: O2S_34  and  S1_45 
REMARK   25 I    between atoms: C6_37  and  C5_47 
REMARK   26 I    between atoms: O2_38  and  C2_77 
REMARK   27 I    between atoms: O2_38  and  S_50 
REMARK   28 I    between atoms: O3S_40  and  S1_53 
REMARK   29 I    between atoms: O1S_42  and  S1_45 
REMARK   30 I    between atoms: O1S_43  and  S1_53 
REMARK   31 I    between atoms: O4_44  and  C1_46 
REMARK   32 I    between atoms: S1_45  and  O3S_60 
REMARK   33 I    between atoms: C6_48  and  C5_84 
REMARK   34 I    between atoms: C6_51  and  C5_87 
REMARK   35 I    between atoms: S1_53  and  O2S_55 
REMARK   36 I    between atoms: C1_56  and  O4_74 
REMARK   37 I    between atoms: O6_57  and  S2_82 
REMARK   38 I    between atoms: O4_61  and  C1_70 
REMARK   39 I    between atoms: C3_63  and  O3_79 
REMARK   40 I    between atoms: O2_69  and  S_76 
ROOT
ATOM      1  C3  IDS d 504     -18.327  52.452 176.497  0.00  0.00     0.185 C 
ATOM      2  C4  IDS d 504     -17.124  51.522 176.506  0.00  0.00     0.195 C 
ATOM      3  C1  IDS d 504     -19.193  51.110 174.482  0.00  0.00     0.294 C 
ATOM      4  O5  IDS d 504     -17.993  50.338 174.599  0.00  0.00    -0.340 OA
ATOM      5  C2  IDS d 504     -19.025  52.491 175.083  0.00  0.00     0.231 C 
ATOM      6  C5  IDS d 504     -17.536  50.172 175.922  0.00  0.00     0.257 C 
ENDROOT
BRANCH   2   7
ATOM      7  O4  IDS d 504     -16.083  52.094 175.727  0.00  0.00    -0.348 OA
BRANCH   7   8
ATOM      8  C1  SGN d 505     -15.137  52.805 176.480  0.00  0.00     0.282 C 
ATOM      9  O5  SGN d 505     -14.190  51.931 177.025  0.00  0.00    -0.349 OA
ATOM     10  C5  SGN d 505     -13.415  51.275 176.069  0.00  0.00     0.181 C 
ATOM     11  C4  SGN d 505     -12.578  52.257 175.315  0.00  0.00     0.186 C 
ATOM     12  C3  SGN d 505     -13.564  53.190 174.554  0.00  0.00     0.173 C 
ATOM     13  C2  SGN d 505     -14.432  53.853 175.641  0.00  0.00     0.157 C 
BRANCH  10  14
ATOM     14  C6  SGN d 505     -12.599  50.267 176.811  0.00  0.00     0.227 C 
BRANCH  14  15
ATOM     15  O6  SGN d 505     -12.920  49.046 176.237  0.00  0.00    -0.254 OA
BRANCH  15  16
ATOM     16  S2  SGN d 505     -12.569  47.661 176.760  0.00  0.00     0.251 S 
ATOM     17  O5S SGN d 505     -13.014  47.668 178.132  0.00  0.00    -0.572 OA
ATOM     18  O4S SGN d 505     -11.136  47.559 176.595  0.00  0.00    -0.572 OA
ATOM     19  O6S SGN d 505     -13.299  46.702 175.943  0.00  0.00    -0.572 OA
ENDBRANCH  15  16
ENDBRANCH  14  15
ENDBRANCH  10  14
BRANCH  11  20
ATOM     20  O4  SGN d 505     -11.719  51.486 174.502  0.00  0.00    -0.348 OA
BRANCH  20  21
ATOM     21  C1  IDS d 506     -10.356  51.716 174.392  0.00  0.00     0.294 C 
ATOM     22  C2  IDS d 506      -9.747  50.662 173.456  0.00  0.00     0.231 C 
ATOM     23  C3  IDS d 506      -8.196  50.605 173.519  0.00  0.00     0.185 C 
ATOM     24  C4  IDS d 506      -7.624  50.815 174.937  0.00  0.00     0.189 C 
ATOM     25  C5  IDS d 506      -8.430  51.876 175.695  0.00  0.00     0.256 C 
ATOM     26  O5  IDS d 506      -9.782  51.560 175.666  0.00  0.00    -0.340 OA
BRANCH  22  27
ATOM     27  O2  IDS d 506     -10.219  49.375 173.801  0.00  0.00    -0.244 OA
BRANCH  27  28
ATOM     28  S   IDS d 506     -11.011  48.340 172.891  0.00  0.00     0.252 S 
ATOM     29  O1S IDS d 506     -10.687  47.053 173.424  0.00  0.00    -0.572 OA
ATOM     30  O2S IDS d 506     -12.414  48.614 173.020  0.00  0.00    -0.572 OA
ATOM     31  O3S IDS d 506     -10.510  48.543 171.548  0.00  0.00    -0.572 OA
ENDBRANCH  27  28
ENDBRANCH  22  27
BRANCH  23  32
ATOM     32  O3  IDS d 506      -7.670  51.617 172.664  0.00  0.00    -0.390 OA
ATOM     33  H   IDS d 506      -6.806  51.336 172.324  0.00  0.00     0.210 HD
ENDBRANCH  23  32
BRANCH  24  34
ATOM     34  O4  IDS d 506      -7.711  49.581 175.611  0.00  0.00    -0.390 OA
ATOM     35  H   IDS d 506      -8.626  49.261 175.582  0.00  0.00     0.210 HD
ENDBRANCH  24  34
BRANCH  25  36
ATOM     36  C6  IDS d 506      -8.009  52.154 177.126  0.00  0.00     0.206 C 
ATOM     37  O62 IDS d 506      -7.095  51.549 177.660  0.00  0.00    -0.646 OA
ATOM     38  O61 IDS d 506      -8.581  53.018 177.775  0.00  0.00    -0.646 OA
ENDBRANCH  25  36
ENDBRANCH  20  21
ENDBRANCH  11  20
BRANCH  12  39
ATOM     39  O3  SGN d 505     -12.854  54.208 173.861  0.00  0.00    -0.391 OA
ATOM     40  H   SGN d 505     -13.049  55.070 174.263  0.00  0.00     0.210 HD
ENDBRANCH  12  39
BRANCH  13  41
ATOM     41  N   SGN d 505     -15.426  54.835 175.148  0.00  0.00    -0.210 NA
ATOM     42  H   SGN d 505     -16.260  54.314 174.875  0.00  0.00     0.140 HD
BRANCH  41  43
ATOM     43  S1  SGN d 505     -15.912  56.042 176.203  0.00  0.00     0.156 S 
BRANCH  43  44
ATOM     44  O3S SGN d 505     -15.832  57.269 175.494  0.00  0.00    -0.296 OA
ATOM     45  H   SGN d 505     -16.028  57.114 174.557  0.00  0.00     0.231 HD
ENDBRANCH  43  44
BRANCH  43  46
ATOM     46  O1S SGN d 505     -17.256  55.728 176.639  0.00  0.00    -0.296 OA
ATOM     47  H   SGN d 505     -17.339  55.909 177.588  0.00  0.00     0.231 HD
ENDBRANCH  43  46
BRANCH  43  48
ATOM     48  O2S SGN d 505     -14.957  55.996 177.286  0.00  0.00    -0.296 OA
ATOM     49  H   SGN d 505     -14.617  55.093 177.379  0.00  0.00     0.231 HD
ENDBRANCH  43  48
ENDBRANCH  41  43
ENDBRANCH  13  41
ENDBRANCH   7   8
ENDBRANCH   2   7
BRANCH   1  50
ATOM     50  O3  IDS d 504     -19.243  51.960 177.468  0.00  0.00    -0.390 OA
ATOM     51  H   IDS d 504     -19.206  52.520 178.259  0.00  0.00     0.210 HD
ENDBRANCH   1  50
BRANCH   6  52
ATOM     52  C6  IDS d 504     -16.458  49.077 175.985  0.00  0.00     0.206 C 
ATOM     53  O62 IDS d 504     -16.105  48.593 177.062  0.00  0.00    -0.646 OA
ATOM     54  O61 IDS d 504     -15.912  48.672 174.967  0.00  0.00    -0.646 OA
ENDBRANCH   6  52
BRANCH   5  55
ATOM     55  O2  IDS d 504     -18.267  53.286 174.174  0.00  0.00    -0.244 OA
BRANCH  55  56
ATOM     56  S   IDS d 504     -18.815  54.347 173.202  0.00  0.00     0.252 S 
ATOM     57  O2S IDS d 504     -20.246  54.256 173.223  0.00  0.00    -0.572 OA
ATOM     58  O3S IDS d 504     -18.289  55.562 173.703  0.00  0.00    -0.572 OA
ATOM     59  O1S IDS d 504     -18.290  54.029 171.925  0.00  0.00    -0.572 OA
ENDBRANCH  55  56
ENDBRANCH   5  55
BRANCH   3  60
ATOM     60  O4  SGN d 503     -20.288  50.493 175.095  0.00  0.00    -0.348 OA
BRANCH  60  61
ATOM     61  C4  SGN d 503     -20.963  49.595 174.277  0.00  0.00     0.186 C 
ATOM     62  C5  SGN d 503     -22.459  49.955 174.276  0.00  0.00     0.181 C 
ATOM     63  O5  SGN d 503     -23.199  49.021 173.554  0.00  0.00    -0.349 OA
ATOM     64  C1  SGN d 503     -23.130  47.722 174.088  0.00  0.00     0.282 C 
ATOM     65  C2  SGN d 503     -21.673  47.239 174.075  0.00  0.00     0.157 C 
ATOM     66  C3  SGN d 503     -20.762  48.187 174.833  0.00  0.00     0.173 C 
BRANCH  62  67
ATOM     67  C6  SGN d 503     -22.780  51.275 173.629  0.00  0.00     0.227 C 
BRANCH  67  68
ATOM     68  O6  SGN d 503     -23.747  51.918 174.431  0.00  0.00    -0.254 OA
BRANCH  68  69
ATOM     69  S2  SGN d 503     -23.587  53.311 175.096  0.00  0.00     0.251 S 
ATOM     70  O6S SGN d 503     -23.574  54.204 174.004  0.00  0.00    -0.572 OA
ATOM     71  O4S SGN d 503     -24.730  53.551 175.911  0.00  0.00    -0.572 OA
ATOM     72  O5S SGN d 503     -22.357  53.272 175.880  0.00  0.00    -0.572 OA
ENDBRANCH  68  69
ENDBRANCH  67  68
ENDBRANCH  62  67
BRANCH  64  73
ATOM     73  O4  IDS d 502     -23.664  47.671 175.383  0.00  0.00    -0.348 OA
BRANCH  73  74
ATOM     74  C4  IDS d 502     -24.971  47.164 175.461  0.00  0.00     0.195 C 
ATOM     75  C3  IDS d 502     -24.930  45.700 175.941  0.00  0.00     0.185 C 
ATOM     76  C2  IDS d 502     -24.509  45.617 177.411  0.00  0.00     0.231 C 
ATOM     77  C1  IDS d 502     -25.292  46.593 178.283  0.00  0.00     0.291 C 
ATOM     78  O5  IDS d 502     -25.263  47.893 177.749  0.00  0.00    -0.340 OA
ATOM     79  C5  IDS d 502     -25.785  48.008 176.440  0.00  0.00     0.257 C 
BRANCH  75  80
ATOM     80  O3  IDS d 502     -26.224  45.142 175.823  0.00  0.00    -0.390 OA
ATOM     81  H   IDS d 502     -26.450  45.046 174.884  0.00  0.00     0.210 HD
ENDBRANCH  75  80
BRANCH  76  82
ATOM     82  O2  IDS d 502     -23.153  45.967 177.476  0.00  0.00    -0.244 OA
BRANCH  82  83
ATOM     83  S   IDS d 502     -21.953  45.069 177.925  0.00  0.00     0.252 S 
ATOM     84  O3S IDS d 502     -20.785  45.887 177.718  0.00  0.00    -0.572 OA
ATOM     85  O2S IDS d 502     -22.000  43.897 177.082  0.00  0.00    -0.572 OA
ATOM     86  O1S IDS d 502     -22.152  44.753 179.312  0.00  0.00    -0.572 OA
ENDBRANCH  82  83
ENDBRANCH  76  82
BRANCH  77  87
ATOM     87  O1  IDS d 502     -26.597  46.096 178.423  0.00  0.00    -0.368 OA
ATOM     88  H   IDS d 502     -26.835  46.073 179.363  0.00  0.00     0.212 HD
ENDBRANCH  77  87
BRANCH  79  89
ATOM     89  C6  IDS d 502     -25.921  49.470 176.040  0.00  0.00     0.206 C 
ATOM     90  O61 IDS d 502     -26.293  49.787 174.937  0.00  0.00    -0.646 OA
ATOM     91  O62 IDS d 502     -25.661  50.360 176.827  0.00  0.00    -0.646 OA
ENDBRANCH  79  89
ENDBRANCH  73  74
ENDBRANCH  64  73
BRANCH  65  92
ATOM     92  N   SGN d 503     -21.581  45.886 174.596  0.00  0.00    -0.210 NA
ATOM     93  H   SGN d 503     -22.527  45.583 174.825  0.00  0.00     0.140 HD
BRANCH  92  94
ATOM     94  S1  SGN d 503     -20.925  44.751 173.633  0.00  0.00     0.156 S 
BRANCH  94  95
ATOM     95  O2S SGN d 503     -19.516  45.083 173.430  0.00  0.00    -0.296 OA
ATOM     96  H   SGN d 503     -19.138  45.408 174.263  0.00  0.00     0.231 HD
ENDBRANCH  94  95
BRANCH  94  97
ATOM     97  O1S SGN d 503     -21.677  44.788 172.393  0.00  0.00    -0.296 OA
ATOM     98  H   SGN d 503     -21.111  44.495 171.663  0.00  0.00     0.231 HD
ENDBRANCH  94  97
BRANCH  94  99
ATOM     99  O3S SGN d 503     -21.137  43.527 174.372  0.00  0.00    -0.296 OA
ATOM    100  H   SGN d 503     -21.334  43.738 175.297  0.00  0.00     0.231 HD
ENDBRANCH  94  99
ENDBRANCH  92  94
ENDBRANCH  65  92
BRANCH  66 101
ATOM    101  O3  SGN d 503     -19.410  47.822 174.630  0.00  0.00    -0.391 OA
ATOM    102  H   SGN d 503     -18.917  47.935 175.457  0.00  0.00     0.210 HD
ENDBRANCH  66 101
ENDBRANCH  60  61
ENDBRANCH   3  60
TORSDOF 40
ENDMDL
MODEL 48
REMARK VINA RESULT:      -2.7      4.352     11.498
REMARK WARNING: 32 MAX_TORS EXCEEDED!!!
REMARK  40 active torsions:
REMARK  status: ('A' for Active; 'I' for Inactive)
REMARK    1 I    between atoms: C6_1  and  C5_8 
REMARK    2 I    between atoms: C6_1  and  O6_57 
REMARK    3 I    between atoms: O4_2  and  C4_49 
REMARK    4 I    between atoms: O6_3  and  C6_7 
REMARK    5 I    between atoms: O6_3  and  S2_58 
REMARK    6 I    between atoms: S_4  and  O2_6 
REMARK    7 I    between atoms: O3_5  and  C3_81 
REMARK    8 I    between atoms: O2_6  and  C2_11 
REMARK    9 I    between atoms: C6_7  and  C5_54 
REMARK   10 I    between atoms: O4_9  and  C4_32 
REMARK   11 I    between atoms: O4_9  and  C1_39 
REMARK   12 I    between atoms: O3_12  and  C3_18 
REMARK   13 I    between atoms: N_13  and  C2_52 
REMARK   14 I    between atoms: N_13  and  S1_45 
REMARK   15 I    between atoms: O3_17  and  C3_83 
REMARK   16 I    between atoms: C4_20  and  O4_44 
REMARK   17 I    between atoms: N_21  and  C2_66 
REMARK   18 I    between atoms: N_21  and  S1_53 
REMARK   19 I    between atoms: O3_22  and  C3_65 
REMARK   20 I    between atoms: C4_23  and  O4_74 
REMARK   21 I    between atoms: C1_25  and  O1_72 
REMARK   22 I    between atoms: C2_28  and  O2_69 
REMARK   23 I    between atoms: C4_33  and  O4_61 
REMARK   24 I    between atoms: O2S_34  and  S1_45 
REMARK   25 I    between atoms: C6_37  and  C5_47 
REMARK   26 I    between atoms: O2_38  and  C2_77 
REMARK   27 I    between atoms: O2_38  and  S_50 
REMARK   28 I    between atoms: O3S_40  and  S1_53 
REMARK   29 I    between atoms: O1S_42  and  S1_45 
REMARK   30 I    between atoms: O1S_43  and  S1_53 
REMARK   31 I    between atoms: O4_44  and  C1_46 
REMARK   32 I    between atoms: S1_45  and  O3S_60 
REMARK   33 I    between atoms: C6_48  and  C5_84 
REMARK   34 I    between atoms: C6_51  and  C5_87 
REMARK   35 I    between atoms: S1_53  and  O2S_55 
REMARK   36 I    between atoms: C1_56  and  O4_74 
REMARK   37 I    between atoms: O6_57  and  S2_82 
REMARK   38 I    between atoms: O4_61  and  C1_70 
REMARK   39 I    between atoms: C3_63  and  O3_79 
REMARK   40 I    between atoms: O2_69  and  S_76 
ROOT
ATOM      1  C3  IDS d 504     -14.635  51.799 174.571  0.00  0.00     0.185 C 
ATOM      2  C4  IDS d 504     -15.344  50.817 173.652  0.00  0.00     0.195 C 
ATOM      3  C1  IDS d 504     -12.879  49.964 174.971  0.00  0.00     0.294 C 
ATOM      4  O5  IDS d 504     -13.671  49.146 174.104  0.00  0.00    -0.340 OA
ATOM      5  C2  IDS d 504     -13.707  51.061 175.611  0.00  0.00     0.231 C 
ATOM      6  C5  IDS d 504     -14.314  49.853 173.068  0.00  0.00     0.257 C 
ENDROOT
BRANCH   2   7
ATOM      7  O4  IDS d 504     -16.320  50.100 174.394  0.00  0.00    -0.348 OA
BRANCH   7   8
ATOM      8  C1  SGN d 505     -17.633  50.304 173.949  0.00  0.00     0.282 C 
ATOM      9  O5  SGN d 505     -18.109  49.164 173.291  0.00  0.00    -0.349 OA
ATOM     10  C5  SGN d 505     -18.217  48.044 174.115  0.00  0.00     0.181 C 
ATOM     11  C4  SGN d 505     -19.243  48.277 175.177  0.00  0.00     0.186 C 
ATOM     12  C3  SGN d 505     -18.717  49.451 176.054  0.00  0.00     0.173 C 
ATOM     13  C2  SGN d 505     -18.563  50.649 175.097  0.00  0.00     0.157 C 
BRANCH  10  14
ATOM     14  C6  SGN d 505     -18.560  46.898 173.220  0.00  0.00     0.227 C 
BRANCH  14  15
ATOM     15  O6  SGN d 505     -18.001  47.216 171.992  0.00  0.00    -0.254 OA
BRANCH  15  16
ATOM     16  S2  SGN d 505     -18.045  46.387 170.717  0.00  0.00     0.251 S 
ATOM     17  O5S SGN d 505     -16.780  45.696 170.690  0.00  0.00    -0.572 OA
ATOM     18  O4S SGN d 505     -18.222  47.353 169.656  0.00  0.00    -0.572 OA
ATOM     19  O6S SGN d 505     -19.175  45.476 170.843  0.00  0.00    -0.572 OA
ENDBRANCH  15  16
ENDBRANCH  14  15
ENDBRANCH  10  14
BRANCH  11  20
ATOM     20  O4  SGN d 505     -19.396  47.041 175.842  0.00  0.00    -0.348 OA
BRANCH  20  21
ATOM     21  C1  IDS d 506     -20.520  46.700 176.578  0.00  0.00     0.294 C 
ATOM     22  C2  IDS d 506     -20.279  45.343 177.255  0.00  0.00     0.231 C 
ATOM     23  C3  IDS d 506     -21.574  44.701 177.824  0.00  0.00     0.185 C 
ATOM     24  C4  IDS d 506     -22.819  44.924 176.940  0.00  0.00     0.189 C 
ATOM     25  C5  IDS d 506     -22.809  46.332 176.334  0.00  0.00     0.256 C 
ATOM     26  O5  IDS d 506     -21.600  46.566 175.690  0.00  0.00    -0.340 OA
BRANCH  22  27
ATOM     27  O2  IDS d 506     -19.741  44.424 176.324  0.00  0.00    -0.244 OA
BRANCH  27  28
ATOM     28  S   IDS d 506     -18.280  43.801 176.288  0.00  0.00     0.252 S 
ATOM     29  O1S IDS d 506     -18.444  42.445 176.711  0.00  0.00    -0.572 OA
ATOM     30  O2S IDS d 506     -17.800  43.866 174.937  0.00  0.00    -0.572 OA
ATOM     31  O3S IDS d 506     -17.497  44.595 177.211  0.00  0.00    -0.572 OA
ENDBRANCH  27  28
ENDBRANCH  22  27
BRANCH  23  32
ATOM     32  O3  IDS d 506     -21.827  45.258 179.112  0.00  0.00    -0.390 OA
ATOM     33  H   IDS d 506     -22.002  44.543 179.745  0.00  0.00     0.210 HD
ENDBRANCH  23  32
BRANCH  24  34
ATOM     34  O4  IDS d 506     -22.778  43.964 175.910  0.00  0.00    -0.390 OA
ATOM     35  H   IDS d 506     -21.981  43.419 176.007  0.00  0.00     0.210 HD
ENDBRANCH  24  34
BRANCH  25  36
ATOM     36  C6  IDS d 506     -23.953  46.677 175.400  0.00  0.00     0.206 C 
ATOM     37  O62 IDS d 506     -24.382  45.882 174.582  0.00  0.00    -0.646 OA
ATOM     38  O61 IDS d 506     -24.485  47.777 175.464  0.00  0.00    -0.646 OA
ENDBRANCH  25  36
ENDBRANCH  20  21
ENDBRANCH  11  20
BRANCH  12  39
ATOM     39  O3  SGN d 505     -19.668  49.792 177.054  0.00  0.00    -0.391 OA
ATOM     40  H   SGN d 505     -19.962  48.987 177.509  0.00  0.00     0.210 HD
ENDBRANCH  12  39
BRANCH  13  41
ATOM     41  N   SGN d 505     -18.113  51.911 175.728  0.00  0.00    -0.210 NA
ATOM     42  H   SGN d 505     -17.184  52.121 175.365  0.00  0.00     0.140 HD
BRANCH  41  43
ATOM     43  S1  SGN d 505     -19.061  53.273 175.496  0.00  0.00     0.156 S 
BRANCH  43  44
ATOM     44  O3S SGN d 505     -18.774  54.165 176.563  0.00  0.00    -0.296 OA
ATOM     45  H   SGN d 505     -18.800  53.682 177.403  0.00  0.00     0.231 HD
ENDBRANCH  43  44
BRANCH  43  46
ATOM     46  O1S SGN d 505     -18.731  53.820 174.197  0.00  0.00    -0.296 OA
ATOM     47  H   SGN d 505     -19.167  54.680 174.088  0.00  0.00     0.231 HD
ENDBRANCH  43  46
BRANCH  43  48
ATOM     48  O2S SGN d 505     -20.422  52.795 175.563  0.00  0.00    -0.296 OA
ATOM     49  H   SGN d 505     -20.625  52.281 174.766  0.00  0.00     0.231 HD
ENDBRANCH  43  48
ENDBRANCH  41  43
ENDBRANCH  13  41
ENDBRANCH   7   8
ENDBRANCH   2   7
BRANCH   1  50
ATOM     50  O3  IDS d 504     -13.846  52.649 173.747  0.00  0.00    -0.390 OA
ATOM     51  H   IDS d 504     -12.941  52.686 174.095  0.00  0.00     0.210 HD
ENDBRANCH   1  50
BRANCH   6  52
ATOM     52  C6  IDS d 504     -14.859  48.878 172.010  0.00  0.00     0.206 C 
ATOM     53  O62 IDS d 504     -14.560  47.682 172.032  0.00  0.00    -0.646 OA
ATOM     54  O61 IDS d 504     -15.589  49.270 171.109  0.00  0.00    -0.646 OA
ENDBRANCH   6  52
BRANCH   5  55
ATOM     55  O2  IDS d 504     -14.489  50.481 176.654  0.00  0.00    -0.244 OA
BRANCH  55  56
ATOM     56  S   IDS d 504     -14.902  51.154 177.976  0.00  0.00     0.252 S 
ATOM     57  O2S IDS d 504     -16.288  51.502 177.870  0.00  0.00    -0.572 OA
ATOM     58  O3S IDS d 504     -14.607  50.175 178.954  0.00  0.00    -0.572 OA
ATOM     59  O1S IDS d 504     -14.084  52.302 178.113  0.00  0.00    -0.572 OA
ENDBRANCH  55  56
ENDBRANCH   5  55
BRANCH   3  60
ATOM     60  O4  SGN d 503     -11.800  50.558 174.309  0.00  0.00    -0.348 OA
BRANCH  60  61
ATOM     61  C4  SGN d 503     -10.659  49.764 174.261  0.00  0.00     0.186 C 
ATOM     62  C5  SGN d 503      -9.457  50.598 174.738  0.00  0.00     0.181 C 
ATOM     63  O5  SGN d 503      -8.269  49.882 174.609  0.00  0.00    -0.349 OA
ATOM     64  C1  SGN d 503      -7.971  49.529 173.282  0.00  0.00     0.282 C 
ATOM     65  C2  SGN d 503      -9.090  48.635 172.726  0.00  0.00     0.157 C 
ATOM     66  C3  SGN d 503     -10.445  49.312 172.818  0.00  0.00     0.173 C 
BRANCH  62  67
ATOM     67  C6  SGN d 503      -9.509  50.989 176.191  0.00  0.00     0.227 C 
BRANCH  67  68
ATOM     68  O6  SGN d 503      -8.210  50.831 176.720  0.00  0.00    -0.254 OA
BRANCH  68  69
ATOM     69  S2  SGN d 503      -7.318  51.972 177.277  0.00  0.00     0.251 S 
ATOM     70  O6S SGN d 503      -8.213  53.052 177.434  0.00  0.00    -0.572 OA
ATOM     71  O4S SGN d 503      -6.814  51.566 178.545  0.00  0.00    -0.572 OA
ATOM     72  O5S SGN d 503      -6.248  52.190 176.309  0.00  0.00    -0.572 OA
ENDBRANCH  68  69
ENDBRANCH  67  68
ENDBRANCH  62  67
BRANCH  64  73
ATOM     73  O4  IDS d 502      -7.790  50.662 172.477  0.00  0.00    -0.348 OA
BRANCH  73  74
ATOM     74  C4  IDS d 502      -6.559  51.315 172.650  0.00  0.00     0.195 C 
ATOM     75  C3  IDS d 502      -5.485  50.632 171.781  0.00  0.00     0.185 C 
ATOM     76  C2  IDS d 502      -5.735  50.894 170.293  0.00  0.00     0.231 C 
ATOM     77  C1  IDS d 502      -5.994  52.371 170.012  0.00  0.00     0.291 C 
ATOM     78  O5  IDS d 502      -6.987  52.887 170.862  0.00  0.00    -0.340 OA
ATOM     79  C5  IDS d 502      -6.699  52.780 172.243  0.00  0.00     0.257 C 
BRANCH  75  80
ATOM     80  O3  IDS d 502      -4.218  51.164 172.114  0.00  0.00    -0.390 OA
ATOM     81  H   IDS d 502      -3.887  50.734 172.917  0.00  0.00     0.210 HD
ENDBRANCH  75  80
BRANCH  76  82
ATOM     82  O2  IDS d 502      -6.883  50.174 169.930  0.00  0.00    -0.244 OA
BRANCH  82  83
ATOM     83  S   IDS d 502      -7.122  49.347 168.624  0.00  0.00     0.252 S 
ATOM     84  O3S IDS d 502      -6.576  48.045 168.909  0.00  0.00    -0.572 OA
ATOM     85  O2S IDS d 502      -6.424  50.055 167.576  0.00  0.00    -0.572 OA
ATOM     86  O1S IDS d 502      -8.540  49.302 168.402  0.00  0.00    -0.572 OA
ENDBRANCH  82  83
ENDBRANCH  76  82
BRANCH  77  87
ATOM     87  O1  IDS d 502      -4.774  53.053 170.130  0.00  0.00    -0.368 OA
ATOM     88  H   IDS d 502      -4.920  54.002 169.994  0.00  0.00     0.212 HD
ENDBRANCH  77  87
BRANCH  79  89
ATOM     89  C6  IDS d 502      -7.713  53.562 173.066  0.00  0.00     0.206 C 
ATOM     90  O61 IDS d 502      -8.865  53.656 172.717  0.00  0.00    -0.646 OA
ATOM     91  O62 IDS d 502      -7.389  54.110 174.101  0.00  0.00    -0.646 OA
ENDBRANCH  79  89
ENDBRANCH  73  74
ENDBRANCH  64  73
BRANCH  65  92
ATOM     92  N   SGN d 503      -8.790  48.233 171.363  0.00  0.00    -0.210 NA
ATOM     93  H   SGN d 503      -7.848  48.561 171.148  0.00  0.00     0.140 HD
BRANCH  92  94
ATOM     94  S1  SGN d 503      -8.843  46.644 171.017  0.00  0.00     0.156 S 
BRANCH  94  95
ATOM     95  O2S SGN d 503      -9.736  45.997 171.977  0.00  0.00    -0.296 OA
ATOM     96  H   SGN d 503     -10.037  45.148 171.617  0.00  0.00     0.231 HD
ENDBRANCH  94  95
BRANCH  94  97
ATOM     97  O1S SGN d 503      -7.481  46.159 171.128  0.00  0.00    -0.296 OA
ATOM     98  H   SGN d 503      -7.231  45.705 170.308  0.00  0.00     0.231 HD
ENDBRANCH  94  97
BRANCH  94  99
ATOM     99  O3S SGN d 503      -9.330  46.618 169.656  0.00  0.00    -0.296 OA
ATOM    100  H   SGN d 503      -8.581  46.542 169.046  0.00  0.00     0.231 HD
ENDBRANCH  94  99
ENDBRANCH  92  94
ENDBRANCH  65  92
BRANCH  66 101
ATOM    101  O3  SGN d 503     -11.467  48.390 172.490  0.00  0.00    -0.391 OA
ATOM    102  H   SGN d 503     -11.472  48.240 171.532  0.00  0.00     0.210 HD
ENDBRANCH  66 101
ENDBRANCH  60  61
ENDBRANCH   3  60
TORSDOF 40
ENDMDL
MODEL 49
REMARK VINA RESULT:      -2.7      4.579     11.376
REMARK WARNING: 32 MAX_TORS EXCEEDED!!!
REMARK  40 active torsions:
REMARK  status: ('A' for Active; 'I' for Inactive)
REMARK    1 I    between atoms: C6_1  and  C5_8 
REMARK    2 I    between atoms: C6_1  and  O6_57 
REMARK    3 I    between atoms: O4_2  and  C4_49 
REMARK    4 I    between atoms: O6_3  and  C6_7 
REMARK    5 I    between atoms: O6_3  and  S2_58 
REMARK    6 I    between atoms: S_4  and  O2_6 
REMARK    7 I    between atoms: O3_5  and  C3_81 
REMARK    8 I    between atoms: O2_6  and  C2_11 
REMARK    9 I    between atoms: C6_7  and  C5_54 
REMARK   10 I    between atoms: O4_9  and  C4_32 
REMARK   11 I    between atoms: O4_9  and  C1_39 
REMARK   12 I    between atoms: O3_12  and  C3_18 
REMARK   13 I    between atoms: N_13  and  C2_52 
REMARK   14 I    between atoms: N_13  and  S1_45 
REMARK   15 I    between atoms: O3_17  and  C3_83 
REMARK   16 I    between atoms: C4_20  and  O4_44 
REMARK   17 I    between atoms: N_21  and  C2_66 
REMARK   18 I    between atoms: N_21  and  S1_53 
REMARK   19 I    between atoms: O3_22  and  C3_65 
REMARK   20 I    between atoms: C4_23  and  O4_74 
REMARK   21 I    between atoms: C1_25  and  O1_72 
REMARK   22 I    between atoms: C2_28  and  O2_69 
REMARK   23 I    between atoms: C4_33  and  O4_61 
REMARK   24 I    between atoms: O2S_34  and  S1_45 
REMARK   25 I    between atoms: C6_37  and  C5_47 
REMARK   26 I    between atoms: O2_38  and  C2_77 
REMARK   27 I    between atoms: O2_38  and  S_50 
REMARK   28 I    between atoms: O3S_40  and  S1_53 
REMARK   29 I    between atoms: O1S_42  and  S1_45 
REMARK   30 I    between atoms: O1S_43  and  S1_53 
REMARK   31 I    between atoms: O4_44  and  C1_46 
REMARK   32 I    between atoms: S1_45  and  O3S_60 
REMARK   33 I    between atoms: C6_48  and  C5_84 
REMARK   34 I    between atoms: C6_51  and  C5_87 
REMARK   35 I    between atoms: S1_53  and  O2S_55 
REMARK   36 I    between atoms: C1_56  and  O4_74 
REMARK   37 I    between atoms: O6_57  and  S2_82 
REMARK   38 I    between atoms: O4_61  and  C1_70 
REMARK   39 I    between atoms: C3_63  and  O3_79 
REMARK   40 I    between atoms: O2_69  and  S_76 
ROOT
ATOM      1  C3  IDS d 504     -14.621  51.401 174.263  0.00  0.00     0.185 C 
ATOM      2  C4  IDS d 504     -15.193  50.274 173.416  0.00  0.00     0.195 C 
ATOM      3  C1  IDS d 504     -12.700  49.802 174.867  0.00  0.00     0.294 C 
ATOM      4  O5  IDS d 504     -13.374  48.834 174.057  0.00  0.00    -0.340 OA
ATOM      5  C2  IDS d 504     -13.657  50.856 175.386  0.00  0.00     0.231 C 
ATOM      6  C5  IDS d 504     -14.050  49.377 172.946  0.00  0.00     0.257 C 
ENDROOT
BRANCH   2   7
ATOM      7  O4  IDS d 504     -16.115  49.524 174.194  0.00  0.00    -0.348 OA
BRANCH   7   8
ATOM      8  C1  SGN d 505     -17.452  49.898 174.006  0.00  0.00     0.282 C 
ATOM      9  O5  SGN d 505     -18.093  48.999 173.145  0.00  0.00    -0.349 OA
ATOM     10  C5  SGN d 505     -18.188  47.704 173.654  0.00  0.00     0.181 C 
ATOM     11  C4  SGN d 505     -19.055  47.686 174.871  0.00  0.00     0.186 C 
ATOM     12  C3  SGN d 505     -18.334  48.556 175.943  0.00  0.00     0.173 C 
ATOM     13  C2  SGN d 505     -18.205  49.960 175.321  0.00  0.00     0.157 C 
BRANCH  10  14
ATOM     14  C6  SGN d 505     -18.727  46.857 172.547  0.00  0.00     0.227 C 
BRANCH  14  15
ATOM     15  O6  SGN d 505     -17.616  46.253 171.979  0.00  0.00    -0.254 OA
BRANCH  15  16
ATOM     16  S2  SGN d 505     -17.466  45.759 170.547  0.00  0.00     0.251 S 
ATOM     17  O5S SGN d 505     -16.088  45.346 170.449  0.00  0.00    -0.572 OA
ATOM     18  O4S SGN d 505     -17.809  46.899 169.728  0.00  0.00    -0.572 OA
ATOM     19  O6S SGN d 505     -18.394  44.649 170.383  0.00  0.00    -0.572 OA
ENDBRANCH  15  16
ENDBRANCH  14  15
ENDBRANCH  10  14
BRANCH  11  20
ATOM     20  O4  SGN d 505     -19.222  46.324 175.204  0.00  0.00    -0.348 OA
BRANCH  20  21
ATOM     21  C1  IDS d 506     -19.975  45.886 176.283  0.00  0.00     0.294 C 
ATOM     22  C2  IDS d 506     -19.806  44.366 176.422  0.00  0.00     0.231 C 
ATOM     23  C3  IDS d 506     -20.851  43.715 177.370  0.00  0.00     0.185 C 
ATOM     24  C4  IDS d 506     -22.259  44.339 177.264  0.00  0.00     0.189 C 
ATOM     25  C5  IDS d 506     -22.166  45.857 177.078  0.00  0.00     0.256 C 
ATOM     26  O5  IDS d 506     -21.327  46.157 176.012  0.00  0.00    -0.340 OA
BRANCH  22  27
ATOM     27  O2  IDS d 506     -19.951  43.743 175.161  0.00  0.00    -0.244 OA
BRANCH  27  28
ATOM     28  S   IDS d 506     -18.942  42.759 174.427  0.00  0.00     0.252 S 
ATOM     29  O1S IDS d 506     -19.352  41.445 174.821  0.00  0.00    -0.572 OA
ATOM     30  O2S IDS d 506     -19.090  42.942 173.011  0.00  0.00    -0.572 OA
ATOM     31  O3S IDS d 506     -17.628  43.116 174.916  0.00  0.00    -0.572 OA
ENDBRANCH  27  28
ENDBRANCH  22  27
BRANCH  23  32
ATOM     32  O3  IDS d 506     -20.393  43.853 178.712  0.00  0.00    -0.390 OA
ATOM     33  H   IDS d 506     -19.722  44.553 178.755  0.00  0.00     0.210 HD
ENDBRANCH  23  32
BRANCH  24  34
ATOM     34  O4  IDS d 506     -22.890  43.760 176.146  0.00  0.00    -0.390 OA
ATOM     35  H   IDS d 506     -23.760  44.170 176.017  0.00  0.00     0.210 HD
ENDBRANCH  24  34
BRANCH  25  36
ATOM     36  C6  IDS d 506     -23.478  46.602 176.911  0.00  0.00     0.206 C 
ATOM     37  O62 IDS d 506     -24.314  46.262 176.092  0.00  0.00    -0.646 OA
ATOM     38  O61 IDS d 506     -23.729  47.566 177.621  0.00  0.00    -0.646 OA
ENDBRANCH  25  36
ENDBRANCH  20  21
ENDBRANCH  11  20
BRANCH  12  39
ATOM     39  O3  SGN d 505     -19.126  48.655 177.119  0.00  0.00    -0.391 OA
ATOM     40  H   SGN d 505     -18.564  48.526 177.900  0.00  0.00     0.210 HD
ENDBRANCH  12  39
BRANCH  13  41
ATOM     41  N   SGN d 505     -17.583  50.984 176.192  0.00  0.00    -0.210 NA
ATOM     42  H   SGN d 505     -16.746  51.323 175.717  0.00  0.00     0.140 HD
BRANCH  41  43
ATOM     43  S1  SGN d 505     -18.508  52.323 176.594  0.00  0.00     0.156 S 
BRANCH  43  44
ATOM     44  O3S SGN d 505     -18.433  52.469 178.004  0.00  0.00    -0.296 OA
ATOM     45  H   SGN d 505     -17.507  52.593 178.267  0.00  0.00     0.231 HD
ENDBRANCH  43  44
BRANCH  43  46
ATOM     46  O1S SGN d 505     -17.968  53.459 175.877  0.00  0.00    -0.296 OA
ATOM     47  H   SGN d 505     -18.684  53.917 175.412  0.00  0.00     0.231 HD
ENDBRANCH  43  46
BRANCH  43  48
ATOM     48  O2S SGN d 505     -19.848  51.990 176.170  0.00  0.00    -0.296 OA
ATOM     49  H   SGN d 505     -20.415  51.877 176.949  0.00  0.00     0.231 HD
ENDBRANCH  43  48
ENDBRANCH  41  43
ENDBRANCH  13  41
ENDBRANCH   7   8
ENDBRANCH   2   7
BRANCH   1  50
ATOM     50  O3  IDS d 504     -13.896  52.255 173.386  0.00  0.00    -0.390 OA
ATOM     51  H   IDS d 504     -14.105  53.180 173.592  0.00  0.00     0.210 HD
ENDBRANCH   1  50
BRANCH   6  52
ATOM     52  C6  IDS d 504     -14.455  48.264 171.966  0.00  0.00     0.206 C 
ATOM     53  O62 IDS d 504     -15.312  48.457 171.101  0.00  0.00    -0.646 OA
ATOM     54  O61 IDS d 504     -13.949  47.151 172.033  0.00  0.00    -0.646 OA
ENDBRANCH   6  52
BRANCH   5  55
ATOM     55  O2  IDS d 504     -14.410  50.289 176.457  0.00  0.00    -0.244 OA
BRANCH  55  56
ATOM     56  S   IDS d 504     -14.391  50.731 177.931  0.00  0.00     0.252 S 
ATOM     57  O2S IDS d 504     -13.752  49.694 178.687  0.00  0.00    -0.572 OA
ATOM     58  O3S IDS d 504     -13.692  51.962 177.901  0.00  0.00    -0.572 OA
ATOM     59  O1S IDS d 504     -15.744  50.900 178.316  0.00  0.00    -0.572 OA
ENDBRANCH  55  56
ENDBRANCH   5  55
BRANCH   3  60
ATOM     60  O4  SGN d 503     -11.666  50.448 174.182  0.00  0.00    -0.348 OA
BRANCH  60  61
ATOM     61  C4  SGN d 503     -10.461  49.753 174.189  0.00  0.00     0.186 C 
ATOM     62  C5  SGN d 503      -9.345  50.704 174.655  0.00  0.00     0.181 C 
ATOM     63  O5  SGN d 503      -8.098  50.087 174.579  0.00  0.00    -0.349 OA
ATOM     64  C1  SGN d 503      -7.742  49.708 173.273  0.00  0.00     0.282 C 
ATOM     65  C2  SGN d 503      -8.768  48.701 172.733  0.00  0.00     0.157 C 
ATOM     66  C3  SGN d 503     -10.177  49.263 172.771  0.00  0.00     0.173 C 
BRANCH  62  67
ATOM     67  C6  SGN d 503      -9.463  51.146 176.088  0.00  0.00     0.227 C 
BRANCH  67  68
ATOM     68  O6  SGN d 503      -8.213  50.926 176.705  0.00  0.00    -0.254 OA
BRANCH  68  69
ATOM     69  S2  SGN d 503      -7.304  52.023 177.320  0.00  0.00     0.251 S 
ATOM     70  O6S SGN d 503      -8.175  53.119 177.498  0.00  0.00    -0.572 OA
ATOM     71  O4S SGN d 503      -6.837  51.560 178.583  0.00  0.00    -0.572 OA
ATOM     72  O5S SGN d 503      -6.209  52.248 176.382  0.00  0.00    -0.572 OA
ENDBRANCH  68  69
ENDBRANCH  67  68
ENDBRANCH  62  67
BRANCH  64  73
ATOM     73  O4  IDS d 502      -7.638  50.820 172.426  0.00  0.00    -0.348 OA
BRANCH  73  74
ATOM     74  C4  IDS d 502      -6.446  51.550 172.557  0.00  0.00     0.195 C 
ATOM     75  C3  IDS d 502      -5.361  50.937 171.651  0.00  0.00     0.185 C 
ATOM     76  C2  IDS d 502      -5.679  51.183 170.173  0.00  0.00     0.231 C 
ATOM     77  C1  IDS d 502      -6.041  52.640 169.904  0.00  0.00     0.291 C 
ATOM     78  O5  IDS d 502      -7.035  53.091 170.789  0.00  0.00    -0.340 OA
ATOM     79  C5  IDS d 502      -6.694  53.003 172.158  0.00  0.00     0.257 C 
BRANCH  75  80
ATOM     80  O3  IDS d 502      -4.120  51.550 171.941  0.00  0.00    -0.390 OA
ATOM     81  H   IDS d 502      -3.697  51.087 172.681  0.00  0.00     0.210 HD
ENDBRANCH  75  80
BRANCH  76  82
ATOM     82  O2  IDS d 502      -6.790  50.391 169.848  0.00  0.00    -0.244 OA
BRANCH  82  83
ATOM     83  S   IDS d 502      -6.980  49.475 168.594  0.00  0.00     0.252 S 
ATOM     84  O3S IDS d 502      -6.244  48.276 168.900  0.00  0.00    -0.572 OA
ATOM     85  O2S IDS d 502      -6.444  50.219 167.478  0.00  0.00    -0.572 OA
ATOM     86  O1S IDS d 502      -8.388  49.226 168.458  0.00  0.00    -0.572 OA
ENDBRANCH  82  83
ENDBRANCH  76  82
BRANCH  77  87
ATOM     87  O1  IDS d 502      -4.864  53.399 169.982  0.00  0.00    -0.368 OA
ATOM     88  H   IDS d 502      -4.945  54.181 169.414  0.00  0.00     0.212 HD
ENDBRANCH  77  87
BRANCH  79  89
ATOM     89  C6  IDS d 502      -7.727  53.719 173.018  0.00  0.00     0.206 C 
ATOM     90  O61 IDS d 502      -7.473  54.063 174.146  0.00  0.00    -0.646 OA
ATOM     91  O62 IDS d 502      -8.836  53.967 172.587  0.00  0.00    -0.646 OA
ENDBRANCH  79  89
ENDBRANCH  73  74
ENDBRANCH  64  73
BRANCH  65  92
ATOM     92  N   SGN d 503      -8.404  48.272 171.394  0.00  0.00    -0.210 NA
ATOM     93  H   SGN d 503      -7.396  48.395 171.297  0.00  0.00     0.140 HD
BRANCH  92  94
ATOM     94  S1  SGN d 503      -8.750  46.739 170.973  0.00  0.00     0.156 S 
BRANCH  94  95
ATOM     95  O2S SGN d 503      -9.817  46.769 169.974  0.00  0.00    -0.296 OA
ATOM     96  H   SGN d 503      -9.889  47.664 169.605  0.00  0.00     0.231 HD
ENDBRANCH  94  95
BRANCH  94  97
ATOM     97  O1S SGN d 503      -9.165  46.069 172.192  0.00  0.00    -0.296 OA
ATOM     98  H   SGN d 503     -10.113  46.215 172.334  0.00  0.00     0.231 HD
ENDBRANCH  94  97
BRANCH  94  99
ATOM     99  O3S SGN d 503      -7.490  46.241 170.469  0.00  0.00    -0.296 OA
ATOM    100  H   SGN d 503      -7.386  45.311 170.723  0.00  0.00     0.231 HD
ENDBRANCH  94  99
ENDBRANCH  92  94
ENDBRANCH  65  92
BRANCH  66 101
ATOM    101  O3  SGN d 503     -11.110  48.246 172.461  0.00  0.00    -0.391 OA
ATOM    102  H   SGN d 503     -12.010  48.582 172.590  0.00  0.00     0.210 HD
ENDBRANCH  66 101
ENDBRANCH  60  61
ENDBRANCH   3  60
TORSDOF 40
ENDMDL
MODEL 50
REMARK VINA RESULT:      -2.6      3.086     12.569
REMARK WARNING: 32 MAX_TORS EXCEEDED!!!
REMARK  40 active torsions:
REMARK  status: ('A' for Active; 'I' for Inactive)
REMARK    1 I    between atoms: C6_1  and  C5_8 
REMARK    2 I    between atoms: C6_1  and  O6_57 
REMARK    3 I    between atoms: O4_2  and  C4_49 
REMARK    4 I    between atoms: O6_3  and  C6_7 
REMARK    5 I    between atoms: O6_3  and  S2_58 
REMARK    6 I    between atoms: S_4  and  O2_6 
REMARK    7 I    between atoms: O3_5  and  C3_81 
REMARK    8 I    between atoms: O2_6  and  C2_11 
REMARK    9 I    between atoms: C6_7  and  C5_54 
REMARK   10 I    between atoms: O4_9  and  C4_32 
REMARK   11 I    between atoms: O4_9  and  C1_39 
REMARK   12 I    between atoms: O3_12  and  C3_18 
REMARK   13 I    between atoms: N_13  and  C2_52 
REMARK   14 I    between atoms: N_13  and  S1_45 
REMARK   15 I    between atoms: O3_17  and  C3_83 
REMARK   16 I    between atoms: C4_20  and  O4_44 
REMARK   17 I    between atoms: N_21  and  C2_66 
REMARK   18 I    between atoms: N_21  and  S1_53 
REMARK   19 I    between atoms: O3_22  and  C3_65 
REMARK   20 I    between atoms: C4_23  and  O4_74 
REMARK   21 I    between atoms: C1_25  and  O1_72 
REMARK   22 I    between atoms: C2_28  and  O2_69 
REMARK   23 I    between atoms: C4_33  and  O4_61 
REMARK   24 I    between atoms: O2S_34  and  S1_45 
REMARK   25 I    between atoms: C6_37  and  C5_47 
REMARK   26 I    between atoms: O2_38  and  C2_77 
REMARK   27 I    between atoms: O2_38  and  S_50 
REMARK   28 I    between atoms: O3S_40  and  S1_53 
REMARK   29 I    between atoms: O1S_42  and  S1_45 
REMARK   30 I    between atoms: O1S_43  and  S1_53 
REMARK   31 I    between atoms: O4_44  and  C1_46 
REMARK   32 I    between atoms: S1_45  and  O3S_60 
REMARK   33 I    between atoms: C6_48  and  C5_84 
REMARK   34 I    between atoms: C6_51  and  C5_87 
REMARK   35 I    between atoms: S1_53  and  O2S_55 
REMARK   36 I    between atoms: C1_56  and  O4_74 
REMARK   37 I    between atoms: O6_57  and  S2_82 
REMARK   38 I    between atoms: O4_61  and  C1_70 
REMARK   39 I    between atoms: C3_63  and  O3_79 
REMARK   40 I    between atoms: O2_69  and  S_76 
ROOT
ATOM      1  C3  IDS d 504     -16.409  48.073 175.847  0.00  0.00     0.185 C 
ATOM      2  C4  IDS d 504     -16.025  49.508 175.520  0.00  0.00     0.195 C 
ATOM      3  C1  IDS d 504     -16.276  47.594 173.325  0.00  0.00     0.294 C 
ATOM      4  O5  IDS d 504     -15.952  48.980 173.173  0.00  0.00    -0.340 OA
ATOM      5  C2  IDS d 504     -17.047  47.341 174.605  0.00  0.00     0.231 C 
ATOM      6  C5  IDS d 504     -15.200  49.520 174.235  0.00  0.00     0.257 C 
ENDROOT
BRANCH   2   7
ATOM      7  O4  IDS d 504     -17.204  50.282 175.351  0.00  0.00    -0.348 OA
BRANCH   7   8
ATOM      8  C1  SGN d 505     -17.778  50.711 176.556  0.00  0.00     0.282 C 
ATOM      9  O5  SGN d 505     -17.081  51.815 177.062  0.00  0.00    -0.349 OA
ATOM     10  C5  SGN d 505     -17.154  52.946 176.249  0.00  0.00     0.181 C 
ATOM     11  C4  SGN d 505     -18.562  53.439 176.167  0.00  0.00     0.186 C 
ATOM     12  C3  SGN d 505     -19.388  52.315 175.477  0.00  0.00     0.173 C 
ATOM     13  C2  SGN d 505     -19.239  51.075 176.379  0.00  0.00     0.157 C 
BRANCH  10  14
ATOM     14  C6  SGN d 505     -16.221  53.950 176.844  0.00  0.00     0.227 C 
BRANCH  14  15
ATOM     15  O6  SGN d 505     -15.082  53.899 176.055  0.00  0.00    -0.254 OA
BRANCH  15  16
ATOM     16  S2  SGN d 505     -14.541  54.994 175.146  0.00  0.00     0.251 S 
ATOM     17  O5S SGN d 505     -13.389  54.402 174.513  0.00  0.00    -0.572 OA
ATOM     18  O4S SGN d 505     -14.238  56.093 176.035  0.00  0.00    -0.572 OA
ATOM     19  O6S SGN d 505     -15.597  55.314 174.195  0.00  0.00    -0.572 OA
ENDBRANCH  15  16
ENDBRANCH  14  15
ENDBRANCH  10  14
BRANCH  11  20
ATOM     20  O4  SGN d 505     -18.500  54.666 175.471  0.00  0.00    -0.348 OA
BRANCH  20  21
ATOM     21  C1  IDS d 506     -19.621  55.370 175.057  0.00  0.00     0.294 C 
ATOM     22  C2  IDS d 506     -19.167  56.621 174.290  0.00  0.00     0.231 C 
ATOM     23  C3  IDS d 506     -20.305  57.655 174.072  0.00  0.00     0.185 C 
ATOM     24  C4  IDS d 506     -21.270  57.779 175.271  0.00  0.00     0.189 C 
ATOM     25  C5  IDS d 506     -21.529  56.407 175.903  0.00  0.00     0.256 C 
ATOM     26  O5  IDS d 506     -20.324  55.784 176.201  0.00  0.00    -0.340 OA
BRANCH  22  27
ATOM     27  O2  IDS d 506     -18.142  57.284 175.004  0.00  0.00    -0.244 OA
BRANCH  27  28
ATOM     28  S   IDS d 506     -17.346  58.596 174.592  0.00  0.00     0.252 S 
ATOM     29  O1S IDS d 506     -16.044  58.435 175.162  0.00  0.00    -0.572 OA
ATOM     30  O2S IDS d 506     -17.280  58.646 173.159  0.00  0.00    -0.572 OA
ATOM     31  O3S IDS d 506     -18.089  59.696 175.169  0.00  0.00    -0.572 OA
ENDBRANCH  27  28
ENDBRANCH  22  27
BRANCH  23  32
ATOM     32  O3  IDS d 506     -21.056  57.267 172.925  0.00  0.00    -0.390 OA
ATOM     33  H   IDS d 506     -22.004  57.302 173.131  0.00  0.00     0.210 HD
ENDBRANCH  23  32
BRANCH  24  34
ATOM     34  O4  IDS d 506     -20.659  58.629 176.214  0.00  0.00    -0.390 OA
ATOM     35  H   IDS d 506     -20.819  58.289 177.108  0.00  0.00     0.210 HD
ENDBRANCH  24  34
BRANCH  25  36
ATOM     36  C6  IDS d 506     -22.426  56.382 177.126  0.00  0.00     0.206 C 
ATOM     37  O62 IDS d 506     -22.121  56.945 178.163  0.00  0.00    -0.646 OA
ATOM     38  O61 IDS d 506     -23.500  55.797 177.086  0.00  0.00    -0.646 OA
ENDBRANCH  25  36
ENDBRANCH  20  21
ENDBRANCH  11  20
BRANCH  12  39
ATOM     39  O3  SGN d 505     -20.763  52.670 175.420  0.00  0.00    -0.391 OA
ATOM     40  H   SGN d 505     -20.850  53.636 175.454  0.00  0.00     0.210 HD
ENDBRANCH  12  39
BRANCH  13  41
ATOM     41  N   SGN d 505     -19.991  49.877 175.938  0.00  0.00    -0.210 NA
ATOM     42  H   SGN d 505     -19.392  49.358 175.296  0.00  0.00     0.140 HD
BRANCH  41  43
ATOM     43  S1  SGN d 505     -20.503  48.806 177.121  0.00  0.00     0.156 S 
BRANCH  43  44
ATOM     44  O3S SGN d 505     -21.689  48.192 176.639  0.00  0.00    -0.296 OA
ATOM     45  H   SGN d 505     -21.662  48.155 175.670  0.00  0.00     0.231 HD
ENDBRANCH  43  44
BRANCH  43  46
ATOM     46  O1S SGN d 505     -19.430  47.862 177.351  0.00  0.00    -0.296 OA
ATOM     47  H   SGN d 505     -19.801  47.021 177.661  0.00  0.00     0.231 HD
ENDBRANCH  43  46
BRANCH  43  48
ATOM     48  O2S SGN d 505     -20.770  49.630 178.278  0.00  0.00    -0.296 OA
ATOM     49  H   SGN d 505     -20.206  49.346 179.014  0.00  0.00     0.231 HD
ENDBRANCH  43  48
ENDBRANCH  41  43
ENDBRANCH  13  41
ENDBRANCH   7   8
ENDBRANCH   2   7
BRANCH   1  50
ATOM     50  O3  IDS d 504     -15.218  47.400 176.237  0.00  0.00    -0.390 OA
ATOM     51  H   IDS d 504     -15.202  46.515 175.840  0.00  0.00     0.210 HD
ENDBRANCH   1  50
BRANCH   6  52
ATOM     52  C6  IDS d 504     -14.622  50.890 173.843  0.00  0.00     0.206 C 
ATOM     53  O62 IDS d 504     -13.461  51.195 174.122  0.00  0.00    -0.646 OA
ATOM     54  O61 IDS d 504     -15.309  51.719 173.260  0.00  0.00    -0.646 OA
ENDBRANCH   6  52
BRANCH   5  55
ATOM     55  O2  IDS d 504     -18.393  47.770 174.410  0.00  0.00    -0.244 OA
BRANCH  55  56
ATOM     56  S   IDS d 504     -19.584  46.896 173.978  0.00  0.00     0.252 S 
ATOM     57  O2S IDS d 504     -20.677  47.773 173.673  0.00  0.00    -0.572 OA
ATOM     58  O3S IDS d 504     -19.081  46.167 172.875  0.00  0.00    -0.572 OA
ATOM     59  O1S IDS d 504     -19.882  46.054 175.079  0.00  0.00    -0.572 OA
ENDBRANCH  55  56
ENDBRANCH   5  55
BRANCH   3  60
ATOM     60  O4  SGN d 503     -15.142  46.776 173.325  0.00  0.00    -0.348 OA
BRANCH  60  61
ATOM     61  C4  SGN d 503     -14.836  46.231 172.083  0.00  0.00     0.186 C 
ATOM     62  C5  SGN d 503     -14.359  44.782 172.284  0.00  0.00     0.181 C 
ATOM     63  O5  SGN d 503     -13.938  44.222 171.079  0.00  0.00    -0.349 OA
ATOM     64  C1  SGN d 503     -12.847  44.896 170.502  0.00  0.00     0.282 C 
ATOM     65  C2  SGN d 503     -13.243  46.349 170.201  0.00  0.00     0.157 C 
ATOM     66  C3  SGN d 503     -13.727  47.066 171.448  0.00  0.00     0.173 C 
BRANCH  62  67
ATOM     67  C6  SGN d 503     -15.421  43.842 172.788  0.00  0.00     0.227 C 
BRANCH  67  68
ATOM     68  O6  SGN d 503     -15.114  43.536 174.131  0.00  0.00    -0.254 OA
BRANCH  68  69
ATOM     69  S2  SGN d 503     -16.126  43.518 175.307  0.00  0.00     0.251 S 
ATOM     70  O6S SGN d 503     -15.979  42.227 175.857  0.00  0.00    -0.572 OA
ATOM     71  O4S SGN d 503     -15.728  44.502 176.255  0.00  0.00    -0.572 OA
ATOM     72  O5S SGN d 503     -17.442  43.805 174.743  0.00  0.00    -0.572 OA
ENDBRANCH  68  69
ENDBRANCH  67  68
ENDBRANCH  62  67
BRANCH  64  73
ATOM     73  O4  IDS d 502     -11.717  44.845 171.329  0.00  0.00    -0.348 OA
BRANCH  73  74
ATOM     74  C4  IDS d 502     -11.083  43.593 171.382  0.00  0.00     0.195 C 
ATOM     75  C3  IDS d 502     -10.219  43.397 170.122  0.00  0.00     0.185 C 
ATOM     76  C2  IDS d 502      -9.003  44.327 170.142  0.00  0.00     0.231 C 
ATOM     77  C1  IDS d 502      -8.270  44.278 171.479  0.00  0.00     0.291 C 
ATOM     78  O5  IDS d 502      -9.156  44.466 172.554  0.00  0.00    -0.340 OA
ATOM     79  C5  IDS d 502     -10.205  43.521 172.630  0.00  0.00     0.257 C 
BRANCH  75  80
ATOM     80  O3  IDS d 502      -9.750  42.063 170.090  0.00  0.00    -0.390 OA
ATOM     81  H   IDS d 502      -9.281  41.865 170.915  0.00  0.00     0.210 HD
ENDBRANCH  75  80
BRANCH  76  82
ATOM     82  O2  IDS d 502      -9.475  45.634 169.952  0.00  0.00    -0.244 OA
BRANCH  82  83
ATOM     83  S   IDS d 502      -8.671  46.880 169.453  0.00  0.00     0.252 S 
ATOM     84  O3S IDS d 502      -9.073  47.951 170.329  0.00  0.00    -0.572 OA
ATOM     85  O2S IDS d 502      -9.061  47.076 168.076  0.00  0.00    -0.572 OA
ATOM     86  O1S IDS d 502      -7.275  46.568 169.587  0.00  0.00    -0.572 OA
ENDBRANCH  82  83
ENDBRANCH  76  82
BRANCH  77  87
ATOM     87  O1  IDS d 502      -7.585  43.056 171.551  0.00  0.00    -0.368 OA
ATOM     88  H   IDS d 502      -8.213  42.326 171.430  0.00  0.00     0.212 HD
ENDBRANCH  77  87
BRANCH  79  89
ATOM     89  C6  IDS d 502     -10.967  43.667 173.939  0.00  0.00     0.206 C 
ATOM     90  O61 IDS d 502     -10.680  44.523 174.740  0.00  0.00    -0.646 OA
ATOM     91  O62 IDS d 502     -11.892  42.926 174.212  0.00  0.00    -0.646 OA
ENDBRANCH  79  89
ENDBRANCH  73  74
ENDBRANCH  64  73
BRANCH  65  92
ATOM     92  N   SGN d 503     -12.139  47.057 169.578  0.00  0.00    -0.210 NA
ATOM     93  H   SGN d 503     -11.554  46.363 169.113  0.00  0.00     0.140 HD
BRANCH  92  94
ATOM     94  S1  SGN d 503     -12.503  48.202 168.480  0.00  0.00     0.156 S 
BRANCH  94  95
ATOM     95  O2S SGN d 503     -11.457  48.203 167.457  0.00  0.00    -0.296 OA
ATOM     96  H   SGN d 503     -11.862  48.102 166.581  0.00  0.00     0.231 HD
ENDBRANCH  94  95
BRANCH  94  97
ATOM     97  O1S SGN d 503     -12.556  49.457 169.205  0.00  0.00    -0.296 OA
ATOM     98  H   SGN d 503     -11.674  49.667 169.551  0.00  0.00     0.231 HD
ENDBRANCH  94  97
BRANCH  94  99
ATOM     99  O3S SGN d 503     -13.799  47.791 167.990  0.00  0.00    -0.296 OA
ATOM    100  H   SGN d 503     -13.716  47.484 167.074  0.00  0.00     0.231 HD
ENDBRANCH  94  99
ENDBRANCH  92  94
ENDBRANCH  65  92
BRANCH  66 101
ATOM    101  O3  SGN d 503     -14.269  48.326 171.099  0.00  0.00    -0.391 OA
ATOM    102  H   SGN d 503     -13.553  48.975 171.018  0.00  0.00     0.210 HD
ENDBRANCH  66 101
ENDBRANCH  60  61
ENDBRANCH   3  60
TORSDOF 40
ENDMDL
MODEL 51
REMARK VINA RESULT:      -2.6      4.750      7.807
REMARK WARNING: 32 MAX_TORS EXCEEDED!!!
REMARK  40 active torsions:
REMARK  status: ('A' for Active; 'I' for Inactive)
REMARK    1 I    between atoms: C6_1  and  C5_8 
REMARK    2 I    between atoms: C6_1  and  O6_57 
REMARK    3 I    between atoms: O4_2  and  C4_49 
REMARK    4 I    between atoms: O6_3  and  C6_7 
REMARK    5 I    between atoms: O6_3  and  S2_58 
REMARK    6 I    between atoms: S_4  and  O2_6 
REMARK    7 I    between atoms: O3_5  and  C3_81 
REMARK    8 I    between atoms: O2_6  and  C2_11 
REMARK    9 I    between atoms: C6_7  and  C5_54 
REMARK   10 I    between atoms: O4_9  and  C4_32 
REMARK   11 I    between atoms: O4_9  and  C1_39 
REMARK   12 I    between atoms: O3_12  and  C3_18 
REMARK   13 I    between atoms: N_13  and  C2_52 
REMARK   14 I    between atoms: N_13  and  S1_45 
REMARK   15 I    between atoms: O3_17  and  C3_83 
REMARK   16 I    between atoms: C4_20  and  O4_44 
REMARK   17 I    between atoms: N_21  and  C2_66 
REMARK   18 I    between atoms: N_21  and  S1_53 
REMARK   19 I    between atoms: O3_22  and  C3_65 
REMARK   20 I    between atoms: C4_23  and  O4_74 
REMARK   21 I    between atoms: C1_25  and  O1_72 
REMARK   22 I    between atoms: C2_28  and  O2_69 
REMARK   23 I    between atoms: C4_33  and  O4_61 
REMARK   24 I    between atoms: O2S_34  and  S1_45 
REMARK   25 I    between atoms: C6_37  and  C5_47 
REMARK   26 I    between atoms: O2_38  and  C2_77 
REMARK   27 I    between atoms: O2_38  and  S_50 
REMARK   28 I    between atoms: O3S_40  and  S1_53 
REMARK   29 I    between atoms: O1S_42  and  S1_45 
REMARK   30 I    between atoms: O1S_43  and  S1_53 
REMARK   31 I    between atoms: O4_44  and  C1_46 
REMARK   32 I    between atoms: S1_45  and  O3S_60 
REMARK   33 I    between atoms: C6_48  and  C5_84 
REMARK   34 I    between atoms: C6_51  and  C5_87 
REMARK   35 I    between atoms: S1_53  and  O2S_55 
REMARK   36 I    between atoms: C1_56  and  O4_74 
REMARK   37 I    between atoms: O6_57  and  S2_82 
REMARK   38 I    between atoms: O4_61  and  C1_70 
REMARK   39 I    between atoms: C3_63  and  O3_79 
REMARK   40 I    between atoms: O2_69  and  S_76 
ROOT
ATOM      1  C3  IDS d 504     -13.382  48.683 176.634  0.00  0.00     0.185 C 
ATOM      2  C4  IDS d 504     -12.561  47.811 175.696  0.00  0.00     0.195 C 
ATOM      3  C1  IDS d 504     -15.156  48.793 174.777  0.00  0.00     0.294 C 
ATOM      4  O5  IDS d 504     -14.260  47.990 174.001  0.00  0.00    -0.340 OA
ATOM      5  C2  IDS d 504     -14.419  49.573 175.846  0.00  0.00     0.231 C 
ATOM      6  C5  IDS d 504     -13.507  47.068 174.755  0.00  0.00     0.257 C 
ENDROOT
BRANCH   2   7
ATOM      7  O4  IDS d 504     -11.673  48.631 174.950  0.00  0.00    -0.348 OA
BRANCH   7   8
ATOM      8  C1  SGN d 505     -10.318  48.378 175.206  0.00  0.00     0.282 C 
ATOM      9  O5  SGN d 505      -9.852  47.342 174.388  0.00  0.00    -0.349 OA
ATOM     10  C5  SGN d 505      -9.872  47.649 173.027  0.00  0.00     0.181 C 
ATOM     11  C4  SGN d 505      -8.926  48.768 172.732  0.00  0.00     0.186 C 
ATOM     12  C3  SGN d 505      -9.459  50.014 173.498  0.00  0.00     0.173 C 
ATOM     13  C2  SGN d 505      -9.469  49.615 174.987  0.00  0.00     0.157 C 
BRANCH  10  14
ATOM     14  C6  SGN d 505      -9.519  46.388 172.308  0.00  0.00     0.227 C 
BRANCH  14  15
ATOM     15  O6  SGN d 505      -8.305  45.989 172.848  0.00  0.00    -0.254 OA
BRANCH  15  16
ATOM     16  S2  SGN d 505      -7.689  44.599 172.803  0.00  0.00     0.251 S 
ATOM     17  O5S SGN d 505      -8.818  43.705 172.733  0.00  0.00    -0.572 OA
ATOM     18  O4S SGN d 505      -6.919  44.498 174.022  0.00  0.00    -0.572 OA
ATOM     19  O6S SGN d 505      -6.858  44.542 171.607  0.00  0.00    -0.572 OA
ENDBRANCH  15  16
ENDBRANCH  14  15
ENDBRANCH  10  14
BRANCH  11  20
ATOM     20  O4  SGN d 505      -8.896  48.885 171.325  0.00  0.00    -0.348 OA
BRANCH  20  21
ATOM     21  C1  IDS d 506      -7.739  49.131 170.602  0.00  0.00     0.294 C 
ATOM     22  C2  IDS d 506      -8.103  49.282 169.118  0.00  0.00     0.231 C 
ATOM     23  C3  IDS d 506      -6.872  49.222 168.172  0.00  0.00     0.185 C 
ATOM     24  C4  IDS d 506      -5.798  48.206 168.615  0.00  0.00     0.189 C 
ATOM     25  C5  IDS d 506      -5.652  48.201 170.140  0.00  0.00     0.256 C 
ATOM     26  O5  IDS d 506      -6.893  48.017 170.738  0.00  0.00    -0.340 OA
BRANCH  22  27
ATOM     27  O2  IDS d 506      -8.974  48.240 168.722  0.00  0.00    -0.244 OA
BRANCH  27  28
ATOM     28  S   IDS d 506     -10.549  48.297 168.521  0.00  0.00     0.252 S 
ATOM     29  O1S IDS d 506     -11.066  47.236 169.329  0.00  0.00    -0.572 OA
ATOM     30  O2S IDS d 506     -11.013  49.573 168.987  0.00  0.00    -0.572 OA
ATOM     31  O3S IDS d 506     -10.766  48.093 167.105  0.00  0.00    -0.572 OA
ENDBRANCH  27  28
ENDBRANCH  22  27
BRANCH  23  32
ATOM     32  O3  IDS d 506      -6.277  50.517 168.121  0.00  0.00    -0.390 OA
ATOM     33  H   IDS d 506      -5.553  50.566 168.765  0.00  0.00     0.210 HD
ENDBRANCH  23  32
BRANCH  24  34
ATOM     34  O4  IDS d 506      -6.216  46.936 168.173  0.00  0.00    -0.390 OA
ATOM     35  H   IDS d 506      -6.899  47.039 167.491  0.00  0.00     0.210 HD
ENDBRANCH  24  34
BRANCH  25  36
ATOM     36  C6  IDS d 506      -4.661  47.211 170.724  0.00  0.00     0.206 C 
ATOM     37  O62 IDS d 506      -4.475  47.114 171.925  0.00  0.00    -0.646 OA
ATOM     38  O61 IDS d 506      -4.031  46.468 169.984  0.00  0.00    -0.646 OA
ENDBRANCH  25  36
ENDBRANCH  20  21
ENDBRANCH  11  20
BRANCH  12  39
ATOM     39  O3  SGN d 505      -8.577  51.117 173.333  0.00  0.00    -0.391 OA
ATOM     40  H   SGN d 505      -8.984  51.771 172.742  0.00  0.00     0.210 HD
ENDBRANCH  12  39
BRANCH  13  41
ATOM     41  N   SGN d 505      -9.901  50.677 175.925  0.00  0.00    -0.210 NA
ATOM     42  H   SGN d 505     -10.054  50.239 176.833  0.00  0.00     0.140 HD
BRANCH  41  43
ATOM     43  S1  SGN d 505      -8.862  51.970 176.161  0.00  0.00     0.156 S 
BRANCH  43  44
ATOM     44  O3S SGN d 505      -7.542  51.481 175.972  0.00  0.00    -0.296 OA
ATOM     45  H   SGN d 505      -7.133  51.938 175.220  0.00  0.00     0.231 HD
ENDBRANCH  43  44
BRANCH  43  46
ATOM     46  O1S SGN d 505      -9.224  53.002 175.212  0.00  0.00    -0.296 OA
ATOM     47  H   SGN d 505      -9.471  53.808 175.690  0.00  0.00     0.231 HD
ENDBRANCH  43  46
BRANCH  43  48
ATOM     48  O2S SGN d 505      -9.080  52.378 177.529  0.00  0.00    -0.296 OA
ATOM     49  H   SGN d 505      -8.921  51.626 178.121  0.00  0.00     0.231 HD
ENDBRANCH  43  48
ENDBRANCH  41  43
ENDBRANCH  13  41
ENDBRANCH   7   8
ENDBRANCH   2   7
BRANCH   1  50
ATOM     50  O3  IDS d 504     -14.076  47.810 177.516  0.00  0.00    -0.390 OA
ATOM     51  H   IDS d 504     -13.460  47.473 178.186  0.00  0.00     0.210 HD
ENDBRANCH   1  50
BRANCH   6  52
ATOM     52  C6  IDS d 504     -12.834  46.041 173.830  0.00  0.00     0.206 C 
ATOM     53  O62 IDS d 504     -12.957  46.109 172.606  0.00  0.00    -0.646 OA
ATOM     54  O61 IDS d 504     -12.172  45.118 174.290  0.00  0.00    -0.646 OA
ENDBRANCH   6  52
BRANCH   5  55
ATOM     55  O2  IDS d 504     -13.760  50.674 175.224  0.00  0.00    -0.244 OA
BRANCH  55  56
ATOM     56  S   IDS d 504     -13.288  51.970 175.908  0.00  0.00     0.252 S 
ATOM     57  O2S IDS d 504     -12.297  52.570 175.063  0.00  0.00    -0.572 OA
ATOM     58  O3S IDS d 504     -14.477  52.722 176.056  0.00  0.00    -0.572 OA
ATOM     59  O1S IDS d 504     -12.744  51.587 177.159  0.00  0.00    -0.572 OA
ENDBRANCH  55  56
ENDBRANCH   5  55
BRANCH   3  60
ATOM     60  O4  SGN d 503     -16.156  48.035 175.396  0.00  0.00    -0.348 OA
BRANCH  60  61
ATOM     61  C4  SGN d 503     -17.133  47.568 174.525  0.00  0.00     0.186 C 
ATOM     62  C5  SGN d 503     -18.445  48.320 174.805  0.00  0.00     0.181 C 
ATOM     63  O5  SGN d 503     -19.488  47.816 174.030  0.00  0.00    -0.349 OA
ATOM     64  C1  SGN d 503     -19.772  46.463 174.290  0.00  0.00     0.282 C 
ATOM     65  C2  SGN d 503     -18.534  45.610 173.978  0.00  0.00     0.157 C 
ATOM     66  C3  SGN d 503     -17.323  46.072 174.767  0.00  0.00     0.173 C 
BRANCH  62  67
ATOM     67  C6  SGN d 503     -18.404  49.788 174.475  0.00  0.00     0.227 C 
BRANCH  67  68
ATOM     68  O6  SGN d 503     -19.042  50.479 175.527  0.00  0.00    -0.254 OA
BRANCH  68  69
ATOM     69  S2  SGN d 503     -18.366  51.505 176.474  0.00  0.00     0.251 S 
ATOM     70  O6S SGN d 503     -17.985  52.556 175.613  0.00  0.00    -0.572 OA
ATOM     71  O4S SGN d 503     -19.340  51.964 177.405  0.00  0.00    -0.572 OA
ATOM     72  O5S SGN d 503     -17.262  50.816 177.135  0.00  0.00    -0.572 OA
ENDBRANCH  68  69
ENDBRANCH  67  68
ENDBRANCH  62  67
BRANCH  64  73
ATOM     73  O4  IDS d 502     -20.191  46.273 175.614  0.00  0.00    -0.348 OA
BRANCH  73  74
ATOM     74  C4  IDS d 502     -21.583  46.300 175.799  0.00  0.00     0.195 C 
ATOM     75  C3  IDS d 502     -22.127  44.859 175.845  0.00  0.00     0.185 C 
ATOM     76  C2  IDS d 502     -21.687  44.148 177.128  0.00  0.00     0.231 C 
ATOM     77  C1  IDS d 502     -21.934  45.004 178.366  0.00  0.00     0.291 C 
ATOM     78  O5  IDS d 502     -21.399  46.294 178.211  0.00  0.00    -0.340 OA
ATOM     79  C5  IDS d 502     -21.907  47.018 177.108  0.00  0.00     0.257 C 
BRANCH  75  80
ATOM     80  O3  IDS d 502     -23.540  44.901 175.829  0.00  0.00    -0.390 OA
ATOM     81  H   IDS d 502     -23.876  44.235 175.210  0.00  0.00     0.210 HD
ENDBRANCH  75  80
BRANCH  76  82
ATOM     82  O2  IDS d 502     -20.307  43.919 177.026  0.00  0.00    -0.244 OA
BRANCH  82  83
ATOM     83  S   IDS d 502     -19.502  42.679 177.537  0.00  0.00     0.252 S 
ATOM     84  O3S IDS d 502     -18.722  43.178 178.641  0.00  0.00    -0.572 OA
ATOM     85  O2S IDS d 502     -18.706  42.236 176.416  0.00  0.00    -0.572 OA
ATOM     86  O1S IDS d 502     -20.458  41.692 177.953  0.00  0.00    -0.572 OA
ENDBRANCH  82  83
ENDBRANCH  76  82
BRANCH  77  87
ATOM     87  O1  IDS d 502     -23.315  45.019 178.612  0.00  0.00    -0.368 OA
ATOM     88  H   IDS d 502     -23.549  44.275 179.189  0.00  0.00     0.212 HD
ENDBRANCH  77  87
BRANCH  79  89
ATOM     89  C6  IDS d 502     -21.444  48.467 177.155  0.00  0.00     0.206 C 
ATOM     90  O61 IDS d 502     -20.554  48.817 177.891  0.00  0.00    -0.646 OA
ATOM     91  O62 IDS d 502     -21.958  49.312 176.448  0.00  0.00    -0.646 OA
ENDBRANCH  79  89
ENDBRANCH  73  74
ENDBRANCH  64  73
BRANCH  65  92
ATOM     92  N   SGN d 503     -18.814  44.204 174.213  0.00  0.00    -0.210 NA
ATOM     93  H   SGN d 503     -19.773  44.136 174.552  0.00  0.00     0.140 HD
BRANCH  92  94
ATOM     94  S1  SGN d 503     -18.671  43.187 172.950  0.00  0.00     0.156 S 
BRANCH  94  95
ATOM     95  O2S SGN d 503     -18.646  41.819 173.466  0.00  0.00    -0.296 OA
ATOM     96  H   SGN d 503     -18.707  41.194 172.727  0.00  0.00     0.231 HD
ENDBRANCH  94  95
BRANCH  94  97
ATOM     97  O1S SGN d 503     -17.431  43.541 172.284  0.00  0.00    -0.296 OA
ATOM     98  H   SGN d 503     -16.716  43.589 172.937  0.00  0.00     0.231 HD
ENDBRANCH  94  97
BRANCH  94  99
ATOM     99  O3S SGN d 503     -19.835  43.488 172.149  0.00  0.00    -0.296 OA
ATOM    100  H   SGN d 503     -20.585  42.954 172.454  0.00  0.00     0.231 HD
ENDBRANCH  94  99
ENDBRANCH  92  94
ENDBRANCH  65  92
BRANCH  66 101
ATOM    101  O3  SGN d 503     -16.164  45.401 174.308  0.00  0.00    -0.391 OA
ATOM    102  H   SGN d 503     -15.676  45.043 175.065  0.00  0.00     0.210 HD
ENDBRANCH  66 101
ENDBRANCH  60  61
ENDBRANCH   3  60
TORSDOF 40
ENDMDL
MODEL 52
REMARK VINA RESULT:      -2.6      2.736     13.262
REMARK WARNING: 32 MAX_TORS EXCEEDED!!!
REMARK  40 active torsions:
REMARK  status: ('A' for Active; 'I' for Inactive)
REMARK    1 I    between atoms: C6_1  and  C5_8 
REMARK    2 I    between atoms: C6_1  and  O6_57 
REMARK    3 I    between atoms: O4_2  and  C4_49 
REMARK    4 I    between atoms: O6_3  and  C6_7 
REMARK    5 I    between atoms: O6_3  and  S2_58 
REMARK    6 I    between atoms: S_4  and  O2_6 
REMARK    7 I    between atoms: O3_5  and  C3_81 
REMARK    8 I    between atoms: O2_6  and  C2_11 
REMARK    9 I    between atoms: C6_7  and  C5_54 
REMARK   10 I    between atoms: O4_9  and  C4_32 
REMARK   11 I    between atoms: O4_9  and  C1_39 
REMARK   12 I    between atoms: O3_12  and  C3_18 
REMARK   13 I    between atoms: N_13  and  C2_52 
REMARK   14 I    between atoms: N_13  and  S1_45 
REMARK   15 I    between atoms: O3_17  and  C3_83 
REMARK   16 I    between atoms: C4_20  and  O4_44 
REMARK   17 I    between atoms: N_21  and  C2_66 
REMARK   18 I    between atoms: N_21  and  S1_53 
REMARK   19 I    between atoms: O3_22  and  C3_65 
REMARK   20 I    between atoms: C4_23  and  O4_74 
REMARK   21 I    between atoms: C1_25  and  O1_72 
REMARK   22 I    between atoms: C2_28  and  O2_69 
REMARK   23 I    between atoms: C4_33  and  O4_61 
REMARK   24 I    between atoms: O2S_34  and  S1_45 
REMARK   25 I    between atoms: C6_37  and  C5_47 
REMARK   26 I    between atoms: O2_38  and  C2_77 
REMARK   27 I    between atoms: O2_38  and  S_50 
REMARK   28 I    between atoms: O3S_40  and  S1_53 
REMARK   29 I    between atoms: O1S_42  and  S1_45 
REMARK   30 I    between atoms: O1S_43  and  S1_53 
REMARK   31 I    between atoms: O4_44  and  C1_46 
REMARK   32 I    between atoms: S1_45  and  O3S_60 
REMARK   33 I    between atoms: C6_48  and  C5_84 
REMARK   34 I    between atoms: C6_51  and  C5_87 
REMARK   35 I    between atoms: S1_53  and  O2S_55 
REMARK   36 I    between atoms: C1_56  and  O4_74 
REMARK   37 I    between atoms: O6_57  and  S2_82 
REMARK   38 I    between atoms: O4_61  and  C1_70 
REMARK   39 I    between atoms: C3_63  and  O3_79 
REMARK   40 I    between atoms: O2_69  and  S_76 
ROOT
ATOM      1  C3  IDS d 504     -15.782  47.533 174.143  0.00  0.00     0.185 C 
ATOM      2  C4  IDS d 504     -15.662  49.023 174.423  0.00  0.00     0.195 C 
ATOM      3  C1  IDS d 504     -14.299  47.928 172.080  0.00  0.00     0.294 C 
ATOM      4  O5  IDS d 504     -14.304  49.309 172.456  0.00  0.00    -0.340 OA
ATOM      5  C2  IDS d 504     -15.511  47.200 172.625  0.00  0.00     0.231 C 
ATOM      6  C5  IDS d 504     -14.341  49.531 173.848  0.00  0.00     0.257 C 
ENDROOT
BRANCH   2   7
ATOM      7  O4  IDS d 504     -16.752  49.703 173.819  0.00  0.00    -0.348 OA
BRANCH   7   8
ATOM      8  C1  SGN d 505     -17.908  49.738 174.611  0.00  0.00     0.282 C 
ATOM      9  O5  SGN d 505     -17.755  50.654 175.658  0.00  0.00    -0.349 OA
ATOM     10  C5  SGN d 505     -17.617  51.975 175.232  0.00  0.00     0.181 C 
ATOM     11  C4  SGN d 505     -18.865  52.437 174.554  0.00  0.00     0.186 C 
ATOM     12  C3  SGN d 505     -19.034  51.554 173.284  0.00  0.00     0.173 C 
ATOM     13  C2  SGN d 505     -19.132  50.104 173.795  0.00  0.00     0.157 C 
BRANCH  10  14
ATOM     14  C6  SGN d 505     -17.288  52.775 176.451  0.00  0.00     0.227 C 
BRANCH  14  15
ATOM     15  O6  SGN d 505     -15.968  52.468 176.742  0.00  0.00    -0.254 OA
BRANCH  15  16
ATOM     16  S2  SGN d 505     -15.440  51.742 177.971  0.00  0.00     0.251 S 
ATOM     17  O5S SGN d 505     -16.436  51.979 178.986  0.00  0.00    -0.572 OA
ATOM     18  O4S SGN d 505     -14.157  52.353 178.236  0.00  0.00    -0.572 OA
ATOM     19  O6S SGN d 505     -15.330  50.334 177.616  0.00  0.00    -0.572 OA
ENDBRANCH  15  16
ENDBRANCH  14  15
ENDBRANCH  10  14
BRANCH  11  20
ATOM     20  O4  SGN d 505     -18.686  53.818 174.317  0.00  0.00    -0.348 OA
BRANCH  20  21
ATOM     21  C1  IDS d 506     -19.732  54.725 174.243  0.00  0.00     0.294 C 
ATOM     22  C2  IDS d 506     -19.187  56.135 174.512  0.00  0.00     0.231 C 
ATOM     23  C3  IDS d 506     -20.300  57.183 174.790  0.00  0.00     0.185 C 
ATOM     24  C4  IDS d 506     -21.482  56.629 175.614  0.00  0.00     0.189 C 
ATOM     25  C5  IDS d 506     -21.806  55.190 175.200  0.00  0.00     0.256 C 
ATOM     26  O5  IDS d 506     -20.658  54.409 175.251  0.00  0.00    -0.340 OA
BRANCH  22  27
ATOM     27  O2  IDS d 506     -18.345  56.122 175.648  0.00  0.00    -0.244 OA
BRANCH  27  28
ATOM     28  S   IDS d 506     -16.820  56.559 175.748  0.00  0.00     0.252 S 
ATOM     29  O1S IDS d 506     -16.483  56.419 177.131  0.00  0.00    -0.572 OA
ATOM     30  O2S IDS d 506     -16.045  55.664 174.935  0.00  0.00    -0.572 OA
ATOM     31  O3S IDS d 506     -16.779  57.930 175.287  0.00  0.00    -0.572 OA
ENDBRANCH  27  28
ENDBRANCH  22  27
BRANCH  23  32
ATOM     32  O3  IDS d 506     -20.801  57.653 173.541  0.00  0.00    -0.390 OA
ATOM     33  H   IDS d 506     -21.492  58.316 173.698  0.00  0.00     0.210 HD
ENDBRANCH  23  32
BRANCH  24  34
ATOM     34  O4  IDS d 506     -21.097  56.659 176.969  0.00  0.00    -0.390 OA
ATOM     35  H   IDS d 506     -20.854  55.765 177.256  0.00  0.00     0.210 HD
ENDBRANCH  24  34
BRANCH  25  36
ATOM     36  C6  IDS d 506     -22.920  54.498 175.964  0.00  0.00     0.206 C 
ATOM     37  O62 IDS d 506     -23.121  53.300 175.869  0.00  0.00    -0.646 OA
ATOM     38  O61 IDS d 506     -23.639  55.143 176.714  0.00  0.00    -0.646 OA
ENDBRANCH  25  36
ENDBRANCH  20  21
ENDBRANCH  11  20
BRANCH  12  39
ATOM     39  O3  SGN d 505     -20.243  51.877 172.609  0.00  0.00    -0.391 OA
ATOM     40  H   SGN d 505     -20.051  52.475 171.869  0.00  0.00     0.210 HD
ENDBRANCH  12  39
BRANCH  13  41
ATOM     41  N   SGN d 505     -19.348  49.076 172.749  0.00  0.00    -0.210 NA
ATOM     42  H   SGN d 505     -18.660  48.338 172.899  0.00  0.00     0.140 HD
BRANCH  41  43
ATOM     43  S1  SGN d 505     -20.856  48.348 172.679  0.00  0.00     0.156 S 
BRANCH  43  44
ATOM     44  O3S SGN d 505     -20.789  47.179 173.482  0.00  0.00    -0.296 OA
ATOM     45  H   SGN d 505     -19.860  46.944 173.634  0.00  0.00     0.231 HD
ENDBRANCH  43  44
BRANCH  43  46
ATOM     46  O1S SGN d 505     -21.828  49.308 173.159  0.00  0.00    -0.296 OA
ATOM     47  H   SGN d 505     -22.635  49.245 172.625  0.00  0.00     0.231 HD
ENDBRANCH  43  46
BRANCH  43  48
ATOM     48  O2S SGN d 505     -21.046  48.020 171.286  0.00  0.00    -0.296 OA
ATOM     49  H   SGN d 505     -21.958  48.228 171.026  0.00  0.00     0.231 HD
ENDBRANCH  43  48
ENDBRANCH  41  43
ENDBRANCH  13  41
ENDBRANCH   7   8
ENDBRANCH   2   7
BRANCH   1  50
ATOM     50  O3  IDS d 504     -14.816  46.876 174.955  0.00  0.00    -0.390 OA
ATOM     51  H   IDS d 504     -13.951  47.299 174.834  0.00  0.00     0.210 HD
ENDBRANCH   1  50
BRANCH   6  52
ATOM     52  C6  IDS d 504     -14.011  50.998 174.168  0.00  0.00     0.206 C 
ATOM     53  O62 IDS d 504     -14.426  51.914 173.454  0.00  0.00    -0.646 OA
ATOM     54  O61 IDS d 504     -13.313  51.292 175.130  0.00  0.00    -0.646 OA
ENDBRANCH   6  52
BRANCH   5  55
ATOM     55  O2  IDS d 504     -16.641  47.551 171.829  0.00  0.00    -0.244 OA
BRANCH  55  56
ATOM     56  S   IDS d 504     -17.354  46.657 170.798  0.00  0.00     0.252 S 
ATOM     57  O2S IDS d 504     -16.484  45.555 170.505  0.00  0.00    -0.572 OA
ATOM     58  O3S IDS d 504     -18.564  46.305 171.441  0.00  0.00    -0.572 OA
ATOM     59  O1S IDS d 504     -17.577  47.464 169.655  0.00  0.00    -0.572 OA
ENDBRANCH  55  56
ENDBRANCH   5  55
BRANCH   3  60
ATOM     60  O4  SGN d 503     -13.151  47.258 172.514  0.00  0.00    -0.348 OA
BRANCH  60  61
ATOM     61  C4  SGN d 503     -12.063  47.386 171.658  0.00  0.00     0.186 C 
ATOM     62  C5  SGN d 503     -11.853  46.051 170.923  0.00  0.00     0.181 C 
ATOM     63  O5  SGN d 503     -10.708  46.091 170.130  0.00  0.00    -0.349 OA
ATOM     64  C1  SGN d 503      -9.528  46.301 170.864  0.00  0.00     0.282 C 
ATOM     65  C2  SGN d 503      -9.609  47.650 171.592  0.00  0.00     0.157 C 
ATOM     66  C3  SGN d 503     -10.830  47.728 172.491  0.00  0.00     0.173 C 
BRANCH  62  67
ATOM     67  C6  SGN d 503     -12.960  45.684 169.973  0.00  0.00     0.227 C 
BRANCH  67  68
ATOM     68  O6  SGN d 503     -13.639  46.872 169.631  0.00  0.00    -0.254 OA
BRANCH  68  69
ATOM     69  S2  SGN d 503     -13.677  47.517 168.221  0.00  0.00     0.251 S 
ATOM     70  O6S SGN d 503     -13.847  46.417 167.353  0.00  0.00    -0.572 OA
ATOM     71  O4S SGN d 503     -14.811  48.375 168.151  0.00  0.00    -0.572 OA
ATOM     72  O5S SGN d 503     -12.427  48.251 168.052  0.00  0.00    -0.572 OA
ENDBRANCH  68  69
ENDBRANCH  67  68
ENDBRANCH  62  67
BRANCH  64  73
ATOM     73  O4  IDS d 502      -9.294  45.257 171.768  0.00  0.00    -0.348 OA
BRANCH  73  74
ATOM     74  C4  IDS d 502      -8.786  44.081 171.192  0.00  0.00     0.195 C 
ATOM     75  C3  IDS d 502      -7.247  44.139 171.170  0.00  0.00     0.185 C 
ATOM     76  C2  IDS d 502      -6.674  44.026 172.586  0.00  0.00     0.231 C 
ATOM     77  C1  IDS d 502      -7.296  42.869 173.360  0.00  0.00     0.291 C 
ATOM     78  O5  IDS d 502      -8.700  42.916 173.309  0.00  0.00    -0.340 OA
ATOM     79  C5  IDS d 502      -9.248  42.875 172.007  0.00  0.00     0.257 C 
BRANCH  75  80
ATOM     80  O3  IDS d 502      -6.757  43.051 170.410  0.00  0.00    -0.390 OA
ATOM     81  H   IDS d 502      -6.831  42.236 170.929  0.00  0.00     0.210 HD
ENDBRANCH  75  80
BRANCH  76  82
ATOM     82  O2  IDS d 502      -6.985  45.217 173.257  0.00  0.00    -0.244 OA
BRANCH  82  83
ATOM     83  S   IDS d 502      -6.080  46.025 174.245  0.00  0.00     0.252 S 
ATOM     84  O3S IDS d 502      -5.006  46.530 173.430  0.00  0.00    -0.572 OA
ATOM     85  O2S IDS d 502      -5.654  45.080 175.251  0.00  0.00    -0.572 OA
ATOM     86  O1S IDS d 502      -6.885  47.081 174.794  0.00  0.00    -0.572 OA
ENDBRANCH  82  83
ENDBRANCH  76  82
BRANCH  77  87
ATOM     87  O1  IDS d 502      -6.777  41.674 172.841  0.00  0.00    -0.368 OA
ATOM     88  H   IDS d 502      -6.367  41.847 171.979  0.00  0.00     0.212 HD
ENDBRANCH  77  87
BRANCH  79  89
ATOM     89  C6  IDS d 502     -10.759  42.701 172.063  0.00  0.00     0.206 C 
ATOM     90  O61 IDS d 502     -11.391  42.395 171.082  0.00  0.00    -0.646 OA
ATOM     91  O62 IDS d 502     -11.369  42.862 173.102  0.00  0.00    -0.646 OA
ENDBRANCH  79  89
ENDBRANCH  73  74
ENDBRANCH  64  73
BRANCH  65  92
ATOM     92  N   SGN d 503      -8.387  47.902 172.335  0.00  0.00    -0.210 NA
ATOM     93  H   SGN d 503      -8.067  47.008 172.707  0.00  0.00     0.140 HD
BRANCH  92  94
ATOM     94  S1  SGN d 503      -7.140  48.569 171.531  0.00  0.00     0.156 S 
BRANCH  94  95
ATOM     95  O2S SGN d 503      -7.682  49.467 170.512  0.00  0.00    -0.296 OA
ATOM     96  H   SGN d 503      -8.634  49.308 170.416  0.00  0.00     0.231 HD
ENDBRANCH  94  95
BRANCH  94  97
ATOM     97  O1S SGN d 503      -6.399  47.467 170.947  0.00  0.00    -0.296 OA
ATOM     98  H   SGN d 503      -6.076  46.885 171.652  0.00  0.00     0.231 HD
ENDBRANCH  94  97
BRANCH  94  99
ATOM     99  O3S SGN d 503      -6.398  49.245 172.571  0.00  0.00    -0.296 OA
ATOM    100  H   SGN d 503      -6.020  50.065 172.218  0.00  0.00     0.231 HD
ENDBRANCH  94  99
ENDBRANCH  92  94
ENDBRANCH  65  92
BRANCH  66 101
ATOM    101  O3  SGN d 503     -10.982  49.045 172.984  0.00  0.00    -0.391 OA
ATOM    102  H   SGN d 503     -10.966  49.032 173.954  0.00  0.00     0.210 HD
ENDBRANCH  66 101
ENDBRANCH  60  61
ENDBRANCH   3  60
TORSDOF 40
ENDMDL
MODEL 53
REMARK VINA RESULT:      -2.6      2.213      4.415
REMARK WARNING: 32 MAX_TORS EXCEEDED!!!
REMARK  40 active torsions:
REMARK  status: ('A' for Active; 'I' for Inactive)
REMARK    1 I    between atoms: C6_1  and  C5_8 
REMARK    2 I    between atoms: C6_1  and  O6_57 
REMARK    3 I    between atoms: O4_2  and  C4_49 
REMARK    4 I    between atoms: O6_3  and  C6_7 
REMARK    5 I    between atoms: O6_3  and  S2_58 
REMARK    6 I    between atoms: S_4  and  O2_6 
REMARK    7 I    between atoms: O3_5  and  C3_81 
REMARK    8 I    between atoms: O2_6  and  C2_11 
REMARK    9 I    between atoms: C6_7  and  C5_54 
REMARK   10 I    between atoms: O4_9  and  C4_32 
REMARK   11 I    between atoms: O4_9  and  C1_39 
REMARK   12 I    between atoms: O3_12  and  C3_18 
REMARK   13 I    between atoms: N_13  and  C2_52 
REMARK   14 I    between atoms: N_13  and  S1_45 
REMARK   15 I    between atoms: O3_17  and  C3_83 
REMARK   16 I    between atoms: C4_20  and  O4_44 
REMARK   17 I    between atoms: N_21  and  C2_66 
REMARK   18 I    between atoms: N_21  and  S1_53 
REMARK   19 I    between atoms: O3_22  and  C3_65 
REMARK   20 I    between atoms: C4_23  and  O4_74 
REMARK   21 I    between atoms: C1_25  and  O1_72 
REMARK   22 I    between atoms: C2_28  and  O2_69 
REMARK   23 I    between atoms: C4_33  and  O4_61 
REMARK   24 I    between atoms: O2S_34  and  S1_45 
REMARK   25 I    between atoms: C6_37  and  C5_47 
REMARK   26 I    between atoms: O2_38  and  C2_77 
REMARK   27 I    between atoms: O2_38  and  S_50 
REMARK   28 I    between atoms: O3S_40  and  S1_53 
REMARK   29 I    between atoms: O1S_42  and  S1_45 
REMARK   30 I    between atoms: O1S_43  and  S1_53 
REMARK   31 I    between atoms: O4_44  and  C1_46 
REMARK   32 I    between atoms: S1_45  and  O3S_60 
REMARK   33 I    between atoms: C6_48  and  C5_84 
REMARK   34 I    between atoms: C6_51  and  C5_87 
REMARK   35 I    between atoms: S1_53  and  O2S_55 
REMARK   36 I    between atoms: C1_56  and  O4_74 
REMARK   37 I    between atoms: O6_57  and  S2_82 
REMARK   38 I    between atoms: O4_61  and  C1_70 
REMARK   39 I    between atoms: C3_63  and  O3_79 
REMARK   40 I    between atoms: O2_69  and  S_76 
ROOT
ATOM      1  C3  IDS d 504     -16.154  47.202 175.439  0.00  0.00     0.185 C 
ATOM      2  C4  IDS d 504     -15.527  47.431 174.072  0.00  0.00     0.195 C 
ATOM      3  C1  IDS d 504     -15.888  49.727 175.844  0.00  0.00     0.294 C 
ATOM      4  O5  IDS d 504     -15.289  49.779 174.545  0.00  0.00    -0.340 OA
ATOM      5  C2  IDS d 504     -15.771  48.346 176.455  0.00  0.00     0.231 C 
ATOM      6  C5  IDS d 504     -15.826  48.859 173.622  0.00  0.00     0.257 C 
ENDROOT
BRANCH   2   7
ATOM      7  O4  IDS d 504     -14.124  47.229 174.159  0.00  0.00    -0.348 OA
BRANCH   7   8
ATOM      8  C1  SGN d 505     -13.731  45.895 173.987  0.00  0.00     0.282 C 
ATOM      9  O5  SGN d 505     -13.705  45.566 172.626  0.00  0.00    -0.349 OA
ATOM     10  C5  SGN d 505     -12.756  46.279 171.894  0.00  0.00     0.181 C 
ATOM     11  C4  SGN d 505     -11.377  45.934 172.355  0.00  0.00     0.186 C 
ATOM     12  C3  SGN d 505     -11.272  46.404 173.835  0.00  0.00     0.173 C 
ATOM     13  C2  SGN d 505     -12.367  45.633 174.596  0.00  0.00     0.157 C 
BRANCH  10  14
ATOM     14  C6  SGN d 505     -12.990  45.936 170.459  0.00  0.00     0.227 C 
BRANCH  14  15
ATOM     15  O6  SGN d 505     -13.432  47.112 169.872  0.00  0.00    -0.254 OA
BRANCH  15  16
ATOM     16  S2  SGN d 505     -14.359  47.252 168.674  0.00  0.00     0.251 S 
ATOM     17  O5S SGN d 505     -14.243  48.636 168.286  0.00  0.00    -0.572 OA
ATOM     18  O4S SGN d 505     -15.663  46.877 169.173  0.00  0.00    -0.572 OA
ATOM     19  O6S SGN d 505     -13.867  46.342 167.648  0.00  0.00    -0.572 OA
ENDBRANCH  15  16
ENDBRANCH  14  15
ENDBRANCH  10  14
BRANCH  11  20
ATOM     20  O4  SGN d 505     -10.498  46.570 171.450  0.00  0.00    -0.348 OA
BRANCH  20  21
ATOM     21  C1  IDS d 506      -9.218  46.114 171.175  0.00  0.00     0.294 C 
ATOM     22  C2  IDS d 506      -8.608  46.985 170.067  0.00  0.00     0.231 C 
ATOM     23  C3  IDS d 506      -7.324  46.372 169.441  0.00  0.00     0.185 C 
ATOM     24  C4  IDS d 506      -7.378  44.837 169.290  0.00  0.00     0.189 C 
ATOM     25  C5  IDS d 506      -8.079  44.198 170.494  0.00  0.00     0.256 C 
ATOM     26  O5  IDS d 506      -9.317  44.796 170.699  0.00  0.00    -0.340 OA
BRANCH  22  27
ATOM     27  O2  IDS d 506      -9.537  47.154 169.014  0.00  0.00    -0.244 OA
BRANCH  27  28
ATOM     28  S   IDS d 506     -10.059  48.510 168.372  0.00  0.00     0.252 S 
ATOM     29  O1S IDS d 506     -10.792  48.112 167.209  0.00  0.00    -0.572 OA
ATOM     30  O2S IDS d 506     -10.916  49.155 169.326  0.00  0.00    -0.572 OA
ATOM     31  O3S IDS d 506      -8.871  49.275 168.062  0.00  0.00    -0.572 OA
ENDBRANCH  27  28
ENDBRANCH  22  27
BRANCH  23  32
ATOM     32  O3  IDS d 506      -6.213  46.708 170.268  0.00  0.00    -0.390 OA
ATOM     33  H   IDS d 506      -5.795  47.518 169.934  0.00  0.00     0.210 HD
ENDBRANCH  23  32
BRANCH  24  34
ATOM     34  O4  IDS d 506      -8.102  44.557 168.115  0.00  0.00    -0.390 OA
ATOM     35  H   IDS d 506      -8.788  43.898 168.306  0.00  0.00     0.210 HD
ENDBRANCH  24  34
BRANCH  25  36
ATOM     36  C6  IDS d 506      -8.248  42.691 170.460  0.00  0.00     0.206 C 
ATOM     37  O62 IDS d 506      -7.526  41.975 169.787  0.00  0.00    -0.646 OA
ATOM     38  O61 IDS d 506      -9.119  42.157 171.132  0.00  0.00    -0.646 OA
ENDBRANCH  25  36
ENDBRANCH  20  21
ENDBRANCH  11  20
BRANCH  12  39
ATOM     39  O3  SGN d 505     -10.008  46.051 174.382  0.00  0.00    -0.391 OA
ATOM     40  H   SGN d 505      -9.609  46.828 174.804  0.00  0.00     0.210 HD
ENDBRANCH  12  39
BRANCH  13  41
ATOM     41  N   SGN d 505     -12.426  45.887 176.054  0.00  0.00    -0.210 NA
ATOM     42  H   SGN d 505     -13.000  46.718 176.197  0.00  0.00     0.140 HD
BRANCH  41  43
ATOM     43  S1  SGN d 505     -13.050  44.673 177.027  0.00  0.00     0.156 S 
BRANCH  43  44
ATOM     44  O3S SGN d 505     -12.120  44.467 178.079  0.00  0.00    -0.296 OA
ATOM     45  H   SGN d 505     -12.574  44.068 178.838  0.00  0.00     0.231 HD
ENDBRANCH  43  44
BRANCH  43  46
ATOM     46  O1S SGN d 505     -14.347  45.112 177.496  0.00  0.00    -0.296 OA
ATOM     47  H   SGN d 505     -14.851  44.347 177.815  0.00  0.00     0.231 HD
ENDBRANCH  43  46
BRANCH  43  48
ATOM     48  O2S SGN d 505     -13.137  43.515 176.167  0.00  0.00    -0.296 OA
ATOM     49  H   SGN d 505     -12.906  42.720 176.672  0.00  0.00     0.231 HD
ENDBRANCH  43  48
ENDBRANCH  41  43
ENDBRANCH  13  41
ENDBRANCH   7   8
ENDBRANCH   2   7
BRANCH   1  50
ATOM     50  O3  IDS d 504     -17.563  47.181 175.254  0.00  0.00    -0.390 OA
ATOM     51  H   IDS d 504     -17.781  47.548 174.382  0.00  0.00     0.210 HD
ENDBRANCH   1  50
BRANCH   6  52
ATOM     52  C6  IDS d 504     -15.370  49.203 172.194  0.00  0.00     0.206 C 
ATOM     53  O62 IDS d 504     -14.199  49.502 171.954  0.00  0.00    -0.646 OA
ATOM     54  O61 IDS d 504     -16.165  49.205 171.263  0.00  0.00    -0.646 OA
ENDBRANCH   6  52
BRANCH   5  55
ATOM     55  O2  IDS d 504     -14.433  48.173 176.919  0.00  0.00    -0.244 OA
BRANCH  55  56
ATOM     56  S   IDS d 504     -13.847  48.684 178.248  0.00  0.00     0.252 S 
ATOM     57  O2S IDS d 504     -14.677  49.761 178.702  0.00  0.00    -0.572 OA
ATOM     58  O3S IDS d 504     -13.852  47.538 179.078  0.00  0.00    -0.572 OA
ATOM     59  O1S IDS d 504     -12.531  49.124 177.962  0.00  0.00    -0.572 OA
ENDBRANCH  55  56
ENDBRANCH   5  55
BRANCH   3  60
ATOM     60  O4  SGN d 503     -17.239  50.087 175.826  0.00  0.00    -0.348 OA
BRANCH  60  61
ATOM     61  C4  SGN d 503     -17.497  51.349 176.349  0.00  0.00     0.186 C 
ATOM     62  C5  SGN d 503     -19.002  51.641 176.214  0.00  0.00     0.181 C 
ATOM     63  O5  SGN d 503     -19.299  52.938 176.628  0.00  0.00    -0.349 OA
ATOM     64  C1  SGN d 503     -18.658  53.928 175.863  0.00  0.00     0.282 C 
ATOM     65  C2  SGN d 503     -17.136  53.763 175.981  0.00  0.00     0.157 C 
ATOM     66  C3  SGN d 503     -16.689  52.375 175.558  0.00  0.00     0.173 C 
BRANCH  62  67
ATOM     67  C6  SGN d 503     -19.884  50.762 177.059  0.00  0.00     0.227 C 
BRANCH  67  68
ATOM     68  O6  SGN d 503     -20.395  49.745 176.225  0.00  0.00    -0.254 OA
BRANCH  68  69
ATOM     69  S2  SGN d 503     -20.543  48.250 176.611  0.00  0.00     0.251 S 
ATOM     70  O6S SGN d 503     -21.787  48.197 177.275  0.00  0.00    -0.572 OA
ATOM     71  O4S SGN d 503     -20.595  47.482 175.414  0.00  0.00    -0.572 OA
ATOM     72  O5S SGN d 503     -19.387  47.904 177.433  0.00  0.00    -0.572 OA
ENDBRANCH  68  69
ENDBRANCH  67  68
ENDBRANCH  62  67
BRANCH  64  73
ATOM     73  O4  IDS d 502     -19.064  53.883 174.522  0.00  0.00    -0.348 OA
BRANCH  73  74
ATOM     74  C4  IDS d 502     -20.260  54.566 174.247  0.00  0.00     0.195 C 
ATOM     75  C3  IDS d 502     -19.941  55.990 173.754  0.00  0.00     0.185 C 
ATOM     76  C2  IDS d 502     -19.309  55.959 172.360  0.00  0.00     0.231 C 
ATOM     77  C1  IDS d 502     -20.093  55.071 171.399  0.00  0.00     0.291 C 
ATOM     78  O5  IDS d 502     -20.328  53.801 171.953  0.00  0.00    -0.340 OA
ATOM     79  C5  IDS d 502     -21.041  53.809 173.174  0.00  0.00     0.257 C 
BRANCH  75  80
ATOM     80  O3  IDS d 502     -21.144  56.729 173.674  0.00  0.00    -0.390 OA
ATOM     81  H   IDS d 502     -21.258  57.063 172.771  0.00  0.00     0.210 HD
ENDBRANCH  75  80
BRANCH  76  82
ATOM     82  O2  IDS d 502     -18.021  55.420 172.498  0.00  0.00    -0.244 OA
BRANCH  82  83
ATOM     83  S   IDS d 502     -16.661  56.070 172.082  0.00  0.00     0.252 S 
ATOM     84  O3S IDS d 502     -16.552  57.250 172.900  0.00  0.00    -0.572 OA
ATOM     85  O2S IDS d 502     -16.773  56.349 170.669  0.00  0.00    -0.572 OA
ATOM     86  O1S IDS d 502     -15.627  55.115 172.369  0.00  0.00    -0.572 OA
ENDBRANCH  82  83
ENDBRANCH  76  82
BRANCH  77  87
ATOM     87  O1  IDS d 502     -21.279  55.741 171.063  0.00  0.00    -0.368 OA
ATOM     88  H   IDS d 502     -21.964  55.092 170.838  0.00  0.00     0.212 HD
ENDBRANCH  77  87
BRANCH  79  89
ATOM     89  C6  IDS d 502     -21.441  52.396 173.573  0.00  0.00     0.206 C 
ATOM     90  O61 IDS d 502     -22.074  52.185 174.579  0.00  0.00    -0.646 OA
ATOM     91  O62 IDS d 502     -21.137  51.441 172.885  0.00  0.00    -0.646 OA
ENDBRANCH  79  89
ENDBRANCH  73  74
ENDBRANCH  64  73
BRANCH  65  92
ATOM     92  N   SGN d 503     -16.452  54.794 175.220  0.00  0.00    -0.210 NA
ATOM     93  H   SGN d 503     -17.158  55.298 174.686  0.00  0.00     0.140 HD
BRANCH  92  94
ATOM     94  S1  SGN d 503     -15.591  55.897 176.051  0.00  0.00     0.156 S 
BRANCH  94  95
ATOM     95  O2S SGN d 503     -16.526  56.848 176.651  0.00  0.00    -0.296 OA
ATOM     96  H   SGN d 503     -16.898  56.467 177.462  0.00  0.00     0.231 HD
ENDBRANCH  94  95
BRANCH  94  97
ATOM     97  O1S SGN d 503     -14.711  56.532 175.089  0.00  0.00    -0.296 OA
ATOM     98  H   SGN d 503     -14.368  57.359 175.462  0.00  0.00     0.231 HD
ENDBRANCH  94  97
BRANCH  94  99
ATOM     99  O3S SGN d 503     -14.871  55.097 177.016  0.00  0.00    -0.296 OA
ATOM    100  H   SGN d 503     -13.971  54.935 176.694  0.00  0.00     0.231 HD
ENDBRANCH  94  99
ENDBRANCH  92  94
ENDBRANCH  65  92
BRANCH  66 101
ATOM    101  O3  SGN d 503     -15.321  52.194 175.870  0.00  0.00    -0.391 OA
ATOM    102  H   SGN d 503     -14.881  53.057 175.909  0.00  0.00     0.210 HD
ENDBRANCH  66 101
ENDBRANCH  60  61
ENDBRANCH   3  60
TORSDOF 40
ENDMDL
MODEL 54
REMARK VINA RESULT:      -2.6      2.336     12.751
REMARK WARNING: 32 MAX_TORS EXCEEDED!!!
REMARK  40 active torsions:
REMARK  status: ('A' for Active; 'I' for Inactive)
REMARK    1 I    between atoms: C6_1  and  C5_8 
REMARK    2 I    between atoms: C6_1  and  O6_57 
REMARK    3 I    between atoms: O4_2  and  C4_49 
REMARK    4 I    between atoms: O6_3  and  C6_7 
REMARK    5 I    between atoms: O6_3  and  S2_58 
REMARK    6 I    between atoms: S_4  and  O2_6 
REMARK    7 I    between atoms: O3_5  and  C3_81 
REMARK    8 I    between atoms: O2_6  and  C2_11 
REMARK    9 I    between atoms: C6_7  and  C5_54 
REMARK   10 I    between atoms: O4_9  and  C4_32 
REMARK   11 I    between atoms: O4_9  and  C1_39 
REMARK   12 I    between atoms: O3_12  and  C3_18 
REMARK   13 I    between atoms: N_13  and  C2_52 
REMARK   14 I    between atoms: N_13  and  S1_45 
REMARK   15 I    between atoms: O3_17  and  C3_83 
REMARK   16 I    between atoms: C4_20  and  O4_44 
REMARK   17 I    between atoms: N_21  and  C2_66 
REMARK   18 I    between atoms: N_21  and  S1_53 
REMARK   19 I    between atoms: O3_22  and  C3_65 
REMARK   20 I    between atoms: C4_23  and  O4_74 
REMARK   21 I    between atoms: C1_25  and  O1_72 
REMARK   22 I    between atoms: C2_28  and  O2_69 
REMARK   23 I    between atoms: C4_33  and  O4_61 
REMARK   24 I    between atoms: O2S_34  and  S1_45 
REMARK   25 I    between atoms: C6_37  and  C5_47 
REMARK   26 I    between atoms: O2_38  and  C2_77 
REMARK   27 I    between atoms: O2_38  and  S_50 
REMARK   28 I    between atoms: O3S_40  and  S1_53 
REMARK   29 I    between atoms: O1S_42  and  S1_45 
REMARK   30 I    between atoms: O1S_43  and  S1_53 
REMARK   31 I    between atoms: O4_44  and  C1_46 
REMARK   32 I    between atoms: S1_45  and  O3S_60 
REMARK   33 I    between atoms: C6_48  and  C5_84 
REMARK   34 I    between atoms: C6_51  and  C5_87 
REMARK   35 I    between atoms: S1_53  and  O2S_55 
REMARK   36 I    between atoms: C1_56  and  O4_74 
REMARK   37 I    between atoms: O6_57  and  S2_82 
REMARK   38 I    between atoms: O4_61  and  C1_70 
REMARK   39 I    between atoms: C3_63  and  O3_79 
REMARK   40 I    between atoms: O2_69  and  S_76 
ROOT
ATOM      1  C3  IDS d 504     -15.750  52.944 172.537  0.00  0.00     0.185 C 
ATOM      2  C4  IDS d 504     -17.150  52.360 172.434  0.00  0.00     0.195 C 
ATOM      3  C1  IDS d 504     -15.141  50.908 173.983  0.00  0.00     0.294 C 
ATOM      4  O5  IDS d 504     -16.503  50.501 173.820  0.00  0.00    -0.340 OA
ATOM      5  C2  IDS d 504     -14.983  52.404 173.804  0.00  0.00     0.231 C 
ATOM      6  C5  IDS d 504     -17.065  50.841 172.573  0.00  0.00     0.257 C 
ENDROOT
BRANCH   2   7
ATOM      7  O4  IDS d 504     -17.961  52.900 173.467  0.00  0.00    -0.348 OA
BRANCH   7   8
ATOM      8  C1  SGN d 505     -18.530  54.142 173.151  0.00  0.00     0.282 C 
ATOM      9  O5  SGN d 505     -19.771  53.966 172.529  0.00  0.00    -0.349 OA
ATOM     10  C5  SGN d 505     -20.730  53.371 173.348  0.00  0.00     0.181 C 
ATOM     11  C4  SGN d 505     -21.052  54.261 174.505  0.00  0.00     0.186 C 
ATOM     12  C3  SGN d 505     -19.745  54.395 175.340  0.00  0.00     0.173 C 
ATOM     13  C2  SGN d 505     -18.701  55.007 174.385  0.00  0.00     0.157 C 
BRANCH  10  14
ATOM     14  C6  SGN d 505     -21.915  53.101 172.478  0.00  0.00     0.227 C 
BRANCH  14  15
ATOM     15  O6  SGN d 505     -21.662  53.784 171.298  0.00  0.00    -0.254 OA
BRANCH  15  16
ATOM     16  S2  SGN d 505     -21.883  53.283 169.878  0.00  0.00     0.251 S 
ATOM     17  O5S SGN d 505     -20.897  53.980 169.091  0.00  0.00    -0.572 OA
ATOM     18  O4S SGN d 505     -23.251  53.636 169.573  0.00  0.00    -0.572 OA
ATOM     19  O6S SGN d 505     -21.665  51.843 169.898  0.00  0.00    -0.572 OA
ENDBRANCH  15  16
ENDBRANCH  14  15
ENDBRANCH  10  14
BRANCH  11  20
ATOM     20  O4  SGN d 505     -22.139  53.653 175.169  0.00  0.00    -0.348 OA
BRANCH  20  21
ATOM     21  C1  IDS d 506     -23.196  54.362 175.720  0.00  0.00     0.294 C 
ATOM     22  C2  IDS d 506     -24.264  53.369 176.199  0.00  0.00     0.231 C 
ATOM     23  C3  IDS d 506     -25.628  54.041 176.522  0.00  0.00     0.185 C 
ATOM     24  C4  IDS d 506     -26.000  55.186 175.555  0.00  0.00     0.189 C 
ATOM     25  C5  IDS d 506     -24.760  56.004 175.180  0.00  0.00     0.256 C 
ATOM     26  O5  IDS d 506     -23.757  55.164 174.711  0.00  0.00    -0.340 OA
BRANCH  22  27
ATOM     27  O2  IDS d 506     -24.512  52.400 175.200  0.00  0.00    -0.244 OA
BRANCH  27  28
ATOM     28  S   IDS d 506     -24.433  50.818 175.322  0.00  0.00     0.252 S 
ATOM     29  O1S IDS d 506     -24.834  50.326 174.040  0.00  0.00    -0.572 OA
ATOM     30  O2S IDS d 506     -23.074  50.459 175.611  0.00  0.00    -0.572 OA
ATOM     31  O3S IDS d 506     -25.354  50.465 176.381  0.00  0.00    -0.572 OA
ENDBRANCH  27  28
ENDBRANCH  22  27
BRANCH  23  32
ATOM     32  O3  IDS d 506     -25.572  54.566 177.846  0.00  0.00    -0.390 OA
ATOM     33  H   IDS d 506     -25.197  53.899 178.442  0.00  0.00     0.210 HD
ENDBRANCH  23  32
BRANCH  24  34
ATOM     34  O4  IDS d 506     -26.548  54.596 174.400  0.00  0.00    -0.390 OA
ATOM     35  H   IDS d 506     -26.134  53.732 174.251  0.00  0.00     0.210 HD
ENDBRANCH  24  34
BRANCH  25  36
ATOM     36  C6  IDS d 506     -24.967  57.139 174.194  0.00  0.00     0.206 C 
ATOM     37  O62 IDS d 506     -25.355  56.943 173.056  0.00  0.00    -0.646 OA
ATOM     38  O61 IDS d 506     -24.759  58.294 174.539  0.00  0.00    -0.646 OA
ENDBRANCH  25  36
ENDBRANCH  20  21
ENDBRANCH  11  20
BRANCH  12  39
ATOM     39  O3  SGN d 505     -19.938  55.288 176.429  0.00  0.00    -0.391 OA
ATOM     40  H   SGN d 505     -19.961  54.786 177.259  0.00  0.00     0.210 HD
ENDBRANCH  12  39
BRANCH  13  41
ATOM     41  N   SGN d 505     -17.373  55.273 174.984  0.00  0.00    -0.210 NA
ATOM     42  H   SGN d 505     -16.671  54.870 174.364  0.00  0.00     0.140 HD
BRANCH  41  43
ATOM     43  S1  SGN d 505     -16.950  56.873 175.247  0.00  0.00     0.156 S 
BRANCH  43  44
ATOM     44  O3S SGN d 505     -18.064  57.501 175.863  0.00  0.00    -0.296 OA
ATOM     45  H   SGN d 505     -18.708  56.826 176.130  0.00  0.00     0.231 HD
ENDBRANCH  43  44
BRANCH  43  46
ATOM     46  O1S SGN d 505     -15.764  56.882 176.078  0.00  0.00    -0.296 OA
ATOM     47  H   SGN d 505     -15.877  56.252 176.807  0.00  0.00     0.231 HD
ENDBRANCH  43  46
BRANCH  43  48
ATOM     48  O2S SGN d 505     -16.704  57.414 173.930  0.00  0.00    -0.296 OA
ATOM     49  H   SGN d 505     -17.547  57.532 173.466  0.00  0.00     0.231 HD
ENDBRANCH  43  48
ENDBRANCH  41  43
ENDBRANCH  13  41
ENDBRANCH   7   8
ENDBRANCH   2   7
BRANCH   1  50
ATOM     50  O3  IDS d 504     -15.051  52.563 171.358  0.00  0.00    -0.390 OA
ATOM     51  H   IDS d 504     -15.597  51.948 170.844  0.00  0.00     0.210 HD
ENDBRANCH   1  50
BRANCH   6  52
ATOM     52  C6  IDS d 504     -18.390  50.091 172.357  0.00  0.00     0.206 C 
ATOM     53  O62 IDS d 504     -18.494  48.892 172.627  0.00  0.00    -0.646 OA
ATOM     54  O61 IDS d 504     -19.369  50.662 171.896  0.00  0.00    -0.646 OA
ENDBRANCH   6  52
BRANCH   5  55
ATOM     55  O2  IDS d 504     -15.455  53.049 174.986  0.00  0.00    -0.244 OA
BRANCH  55  56
ATOM     56  S   IDS d 504     -14.791  53.028 176.374  0.00  0.00     0.252 S 
ATOM     57  O2S IDS d 504     -15.430  52.001 177.145  0.00  0.00    -0.572 OA
ATOM     58  O3S IDS d 504     -13.425  52.793 176.087  0.00  0.00    -0.572 OA
ATOM     59  O1S IDS d 504     -15.001  54.311 176.938  0.00  0.00    -0.572 OA
ENDBRANCH  55  56
ENDBRANCH   5  55
BRANCH   3  60
ATOM     60  O4  SGN d 503     -14.279  50.265 173.089  0.00  0.00    -0.348 OA
BRANCH  60  61
ATOM     61  C4  SGN d 503     -14.029  48.933 173.401  0.00  0.00     0.186 C 
ATOM     62  C5  SGN d 503     -12.899  48.874 174.443  0.00  0.00     0.181 C 
ATOM     63  O5  SGN d 503     -12.536  47.556 174.713  0.00  0.00    -0.349 OA
ATOM     64  C1  SGN d 503     -12.041  46.872 173.589  0.00  0.00     0.282 C 
ATOM     65  C2  SGN d 503     -13.125  46.819 172.503  0.00  0.00     0.157 C 
ATOM     66  C3  SGN d 503     -13.607  48.208 172.125  0.00  0.00     0.173 C 
BRANCH  62  67
ATOM     67  C6  SGN d 503     -13.260  49.451 175.785  0.00  0.00     0.227 C 
BRANCH  67  68
ATOM     68  O6  SGN d 503     -12.986  48.467 176.758  0.00  0.00    -0.254 OA
BRANCH  68  69
ATOM     69  S2  SGN d 503     -13.817  48.212 178.044  0.00  0.00     0.251 S 
ATOM     70  O6S SGN d 503     -13.194  49.026 179.013  0.00  0.00    -0.572 OA
ATOM     71  O4S SGN d 503     -15.148  48.660 177.811  0.00  0.00    -0.572 OA
ATOM     72  O5S SGN d 503     -13.762  46.778 178.311  0.00  0.00    -0.572 OA
ENDBRANCH  68  69
ENDBRANCH  67  68
ENDBRANCH  62  67
BRANCH  64  73
ATOM     73  O4  IDS d 502     -10.871  47.467 173.100  0.00  0.00    -0.348 OA
BRANCH  73  74
ATOM     74  C4  IDS d 502      -9.789  47.460 173.996  0.00  0.00     0.195 C 
ATOM     75  C3  IDS d 502      -9.089  46.088 173.950  0.00  0.00     0.185 C 
ATOM     76  C2  IDS d 502      -8.354  45.892 172.621  0.00  0.00     0.231 C 
ATOM     77  C1  IDS d 502      -7.496  47.101 172.261  0.00  0.00     0.291 C 
ATOM     78  O5  IDS d 502      -8.236  48.294 172.339  0.00  0.00    -0.340 OA
ATOM     79  C5  IDS d 502      -8.801  48.559 173.608  0.00  0.00     0.257 C 
BRANCH  75  80
ATOM     80  O3  IDS d 502      -8.135  46.024 174.992  0.00  0.00    -0.390 OA
ATOM     81  H   IDS d 502      -7.493  45.324 174.799  0.00  0.00     0.210 HD
ENDBRANCH  75  80
BRANCH  76  82
ATOM     82  O2  IDS d 502      -9.329  45.738 171.624  0.00  0.00    -0.244 OA
BRANCH  82  83
ATOM     83  S   IDS d 502      -9.185  45.008 170.248  0.00  0.00     0.252 S 
ATOM     84  O3S IDS d 502      -8.009  44.188 170.388  0.00  0.00    -0.572 OA
ATOM     85  O2S IDS d 502      -9.052  46.053 169.259  0.00  0.00    -0.572 OA
ATOM     86  O1S IDS d 502     -10.372  44.222 170.056  0.00  0.00    -0.572 OA
ENDBRANCH  82  83
ENDBRANCH  76  82
BRANCH  77  87
ATOM     87  O1  IDS d 502      -6.377  47.104 173.107  0.00  0.00    -0.368 OA
ATOM     88  H   IDS d 502      -6.567  46.571 173.895  0.00  0.00     0.212 HD
ENDBRANCH  77  87
BRANCH  79  89
ATOM     89  C6  IDS d 502      -9.382  49.965 173.656  0.00  0.00     0.206 C 
ATOM     90  O61 IDS d 502      -9.796  50.438 174.686  0.00  0.00    -0.646 OA
ATOM     91  O62 IDS d 502      -9.439  50.653 172.655  0.00  0.00    -0.646 OA
ENDBRANCH  79  89
ENDBRANCH  73  74
ENDBRANCH  64  73
BRANCH  65  92
ATOM     92  N   SGN d 503     -12.646  46.091 171.341  0.00  0.00    -0.210 NA
ATOM     93  H   SGN d 503     -11.880  45.492 171.651  0.00  0.00     0.140 HD
BRANCH  92  94
ATOM     94  S1  SGN d 503     -13.711  45.148 170.550  0.00  0.00     0.156 S 
BRANCH  94  95
ATOM     95  O2S SGN d 503     -14.950  45.110 171.326  0.00  0.00    -0.296 OA
ATOM     96  H   SGN d 503     -15.047  45.939 171.821  0.00  0.00     0.231 HD
ENDBRANCH  94  95
BRANCH  94  97
ATOM     97  O1S SGN d 503     -13.093  43.840 170.445  0.00  0.00    -0.296 OA
ATOM     98  H   SGN d 503     -13.087  43.415 171.317  0.00  0.00     0.231 HD
ENDBRANCH  94  97
BRANCH  94  99
ATOM     99  O3S SGN d 503     -13.844  45.802 169.268  0.00  0.00    -0.296 OA
ATOM    100  H   SGN d 503     -13.165  45.467 168.663  0.00  0.00     0.231 HD
ENDBRANCH  94  99
ENDBRANCH  92  94
ENDBRANCH  65  92
BRANCH  66 101
ATOM    101  O3  SGN d 503     -14.737  48.112 171.279  0.00  0.00    -0.391 OA
ATOM    102  H   SGN d 503     -14.461  48.227 170.356  0.00  0.00     0.210 HD
ENDBRANCH  66 101
ENDBRANCH  60  61
ENDBRANCH   3  60
TORSDOF 40
ENDMDL
MODEL 55
REMARK VINA RESULT:      -2.5      4.560     11.656
REMARK WARNING: 32 MAX_TORS EXCEEDED!!!
REMARK  40 active torsions:
REMARK  status: ('A' for Active; 'I' for Inactive)
REMARK    1 I    between atoms: C6_1  and  C5_8 
REMARK    2 I    between atoms: C6_1  and  O6_57 
REMARK    3 I    between atoms: O4_2  and  C4_49 
REMARK    4 I    between atoms: O6_3  and  C6_7 
REMARK    5 I    between atoms: O6_3  and  S2_58 
REMARK    6 I    between atoms: S_4  and  O2_6 
REMARK    7 I    between atoms: O3_5  and  C3_81 
REMARK    8 I    between atoms: O2_6  and  C2_11 
REMARK    9 I    between atoms: C6_7  and  C5_54 
REMARK   10 I    between atoms: O4_9  and  C4_32 
REMARK   11 I    between atoms: O4_9  and  C1_39 
REMARK   12 I    between atoms: O3_12  and  C3_18 
REMARK   13 I    between atoms: N_13  and  C2_52 
REMARK   14 I    between atoms: N_13  and  S1_45 
REMARK   15 I    between atoms: O3_17  and  C3_83 
REMARK   16 I    between atoms: C4_20  and  O4_44 
REMARK   17 I    between atoms: N_21  and  C2_66 
REMARK   18 I    between atoms: N_21  and  S1_53 
REMARK   19 I    between atoms: O3_22  and  C3_65 
REMARK   20 I    between atoms: C4_23  and  O4_74 
REMARK   21 I    between atoms: C1_25  and  O1_72 
REMARK   22 I    between atoms: C2_28  and  O2_69 
REMARK   23 I    between atoms: C4_33  and  O4_61 
REMARK   24 I    between atoms: O2S_34  and  S1_45 
REMARK   25 I    between atoms: C6_37  and  C5_47 
REMARK   26 I    between atoms: O2_38  and  C2_77 
REMARK   27 I    between atoms: O2_38  and  S_50 
REMARK   28 I    between atoms: O3S_40  and  S1_53 
REMARK   29 I    between atoms: O1S_42  and  S1_45 
REMARK   30 I    between atoms: O1S_43  and  S1_53 
REMARK   31 I    between atoms: O4_44  and  C1_46 
REMARK   32 I    between atoms: S1_45  and  O3S_60 
REMARK   33 I    between atoms: C6_48  and  C5_84 
REMARK   34 I    between atoms: C6_51  and  C5_87 
REMARK   35 I    between atoms: S1_53  and  O2S_55 
REMARK   36 I    between atoms: C1_56  and  O4_74 
REMARK   37 I    between atoms: O6_57  and  S2_82 
REMARK   38 I    between atoms: O4_61  and  C1_70 
REMARK   39 I    between atoms: C3_63  and  O3_79 
REMARK   40 I    between atoms: O2_69  and  S_76 
ROOT
ATOM      1  C3  IDS d 504     -15.082  51.355 174.164  0.00  0.00     0.185 C 
ATOM      2  C4  IDS d 504     -15.908  50.312 173.427  0.00  0.00     0.195 C 
ATOM      3  C1  IDS d 504     -13.507  49.441 174.850  0.00  0.00     0.294 C 
ATOM      4  O5  IDS d 504     -14.399  48.577 174.139  0.00  0.00    -0.340 OA
ATOM      5  C2  IDS d 504     -14.206  50.707 175.305  0.00  0.00     0.231 C 
ATOM      6  C5  IDS d 504     -14.994  49.164 173.004  0.00  0.00     0.257 C 
ENDROOT
BRANCH   2   7
ATOM      7  O4  IDS d 504     -16.931  49.831 174.287  0.00  0.00    -0.348 OA
BRANCH   7   8
ATOM      8  C1  SGN d 505     -18.225  49.980 173.767  0.00  0.00     0.282 C 
ATOM      9  O5  SGN d 505     -18.680  48.767 173.237  0.00  0.00    -0.349 OA
ATOM     10  C5  SGN d 505     -18.828  47.758 174.188  0.00  0.00     0.181 C 
ATOM     11  C4  SGN d 505     -19.894  48.122 175.170  0.00  0.00     0.186 C 
ATOM     12  C3  SGN d 505     -19.397  49.395 175.915  0.00  0.00     0.173 C 
ATOM     13  C2  SGN d 505     -19.197  50.465 174.825  0.00  0.00     0.157 C 
BRANCH  10  14
ATOM     14  C6  SGN d 505     -19.141  46.510 173.429  0.00  0.00     0.227 C 
BRANCH  14  15
ATOM     15  O6  SGN d 505     -18.170  45.598 173.813  0.00  0.00    -0.254 OA
BRANCH  15  16
ATOM     16  S2  SGN d 505     -17.903  44.227 173.210  0.00  0.00     0.251 S 
ATOM     17  O5S SGN d 505     -19.150  43.518 173.358  0.00  0.00    -0.572 OA
ATOM     18  O4S SGN d 505     -16.811  43.689 173.989  0.00  0.00    -0.572 OA
ATOM     19  O6S SGN d 505     -17.546  44.440 171.814  0.00  0.00    -0.572 OA
ENDBRANCH  15  16
ENDBRANCH  14  15
ENDBRANCH  10  14
BRANCH  11  20
ATOM     20  O4  SGN d 505     -20.081  46.978 175.977  0.00  0.00    -0.348 OA
BRANCH  20  21
ATOM     21  C1  IDS d 506     -21.273  46.678 176.618  0.00  0.00     0.294 C 
ATOM     22  C2  IDS d 506     -21.054  45.465 177.533  0.00  0.00     0.231 C 
ATOM     23  C3  IDS d 506     -22.378  44.830 178.040  0.00  0.00     0.185 C 
ATOM     24  C4  IDS d 506     -23.507  44.823 176.988  0.00  0.00     0.189 C 
ATOM     25  C5  IDS d 506     -23.489  46.116 176.165  0.00  0.00     0.256 C 
ATOM     26  O5  IDS d 506     -22.221  46.330 175.641  0.00  0.00    -0.340 OA
BRANCH  22  27
ATOM     27  O2  IDS d 506     -20.354  44.451 176.837  0.00  0.00    -0.244 OA
BRANCH  27  28
ATOM     28  S   IDS d 506     -19.026  43.696 177.272  0.00  0.00     0.252 S 
ATOM     29  O1S IDS d 506     -19.247  43.308 178.631  0.00  0.00    -0.572 OA
ATOM     30  O2S IDS d 506     -18.868  42.547 176.427  0.00  0.00    -0.572 OA
ATOM     31  O3S IDS d 506     -17.962  44.666 177.123  0.00  0.00    -0.572 OA
ENDBRANCH  27  28
ENDBRANCH  22  27
BRANCH  23  32
ATOM     32  O3  IDS d 506     -22.824  45.562 179.179  0.00  0.00    -0.390 OA
ATOM     33  H   IDS d 506     -22.959  46.491 178.933  0.00  0.00     0.210 HD
ENDBRANCH  23  32
BRANCH  24  34
ATOM     34  O4  IDS d 506     -23.285  43.719 176.143  0.00  0.00    -0.390 OA
ATOM     35  H   IDS d 506     -23.003  44.031 175.269  0.00  0.00     0.210 HD
ENDBRANCH  24  34
BRANCH  25  36
ATOM     36  C6  IDS d 506     -24.519  46.229 175.056  0.00  0.00     0.206 C 
ATOM     37  O62 IDS d 506     -25.715  46.153 175.274  0.00  0.00    -0.646 OA
ATOM     38  O61 IDS d 506     -24.157  46.417 173.903  0.00  0.00    -0.646 OA
ENDBRANCH  25  36
ENDBRANCH  20  21
ENDBRANCH  11  20
BRANCH  12  39
ATOM     39  O3  SGN d 505     -20.385  49.858 176.826  0.00  0.00    -0.391 OA
ATOM     40  H   SGN d 505     -20.458  50.823 176.761  0.00  0.00     0.210 HD
ENDBRANCH  12  39
BRANCH  13  41
ATOM     41  N   SGN d 505     -18.766  51.795 175.313  0.00  0.00    -0.210 NA
ATOM     42  H   SGN d 505     -19.594  52.389 175.353  0.00  0.00     0.140 HD
BRANCH  41  43
ATOM     43  S1  SGN d 505     -18.025  51.865 176.814  0.00  0.00     0.156 S 
BRANCH  43  44
ATOM     44  O3S SGN d 505     -19.000  52.327 177.736  0.00  0.00    -0.296 OA
ATOM     45  H   SGN d 505     -19.378  51.571 178.213  0.00  0.00     0.231 HD
ENDBRANCH  43  44
BRANCH  43  46
ATOM     46  O1S SGN d 505     -17.537  50.538 177.124  0.00  0.00    -0.296 OA
ATOM     47  H   SGN d 505     -18.284  49.921 177.165  0.00  0.00     0.231 HD
ENDBRANCH  43  46
BRANCH  43  48
ATOM     48  O2S SGN d 505     -16.955  52.823 176.657  0.00  0.00    -0.296 OA
ATOM     49  H   SGN d 505     -16.255  52.439 176.106  0.00  0.00     0.231 HD
ENDBRANCH  43  48
ENDBRANCH  41  43
ENDBRANCH  13  41
ENDBRANCH   7   8
ENDBRANCH   2   7
BRANCH   1  50
ATOM     50  O3  IDS d 504     -14.233  51.971 173.203  0.00  0.00    -0.390 OA
ATOM     51  H   IDS d 504     -13.355  52.110 173.590  0.00  0.00     0.210 HD
ENDBRANCH   1  50
BRANCH   6  52
ATOM     52  C6  IDS d 504     -15.659  48.088 172.129  0.00  0.00     0.206 C 
ATOM     53  O62 IDS d 504     -15.482  46.888 172.349  0.00  0.00    -0.646 OA
ATOM     54  O61 IDS d 504     -16.368  48.399 171.180  0.00  0.00    -0.646 OA
ENDBRANCH   6  52
BRANCH   5  55
ATOM     55  O2  IDS d 504     -15.015  50.391 176.436  0.00  0.00    -0.244 OA
BRANCH  55  56
ATOM     56  S   IDS d 504     -14.541  50.243 177.893  0.00  0.00     0.252 S 
ATOM     57  O2S IDS d 504     -15.105  51.325 178.645  0.00  0.00    -0.572 OA
ATOM     58  O3S IDS d 504     -15.000  48.957 178.264  0.00  0.00    -0.572 OA
ATOM     59  O1S IDS d 504     -13.125  50.311 177.862  0.00  0.00    -0.572 OA
ENDBRANCH  55  56
ENDBRANCH   5  55
BRANCH   3  60
ATOM     60  O4  SGN d 503     -12.392  49.804 174.089  0.00  0.00    -0.348 OA
BRANCH  60  61
ATOM     61  C4  SGN d 503     -11.326  48.917 174.189  0.00  0.00     0.186 C 
ATOM     62  C5  SGN d 503     -10.050  49.712 174.516  0.00  0.00     0.181 C 
ATOM     63  O5  SGN d 503      -8.930  48.883 174.523  0.00  0.00    -0.349 OA
ATOM     64  C1  SGN d 503      -8.680  48.273 173.280  0.00  0.00     0.282 C 
ATOM     65  C2  SGN d 503      -9.879  47.397 172.888  0.00  0.00     0.157 C 
ATOM     66  C3  SGN d 503     -11.168  48.197 172.851  0.00  0.00     0.173 C 
BRANCH  62  67
ATOM     67  C6  SGN d 503     -10.051  50.358 175.875  0.00  0.00     0.227 C 
BRANCH  67  68
ATOM     68  O6  SGN d 503      -8.733  50.299 176.375  0.00  0.00    -0.254 OA
BRANCH  68  69
ATOM     69  S2  SGN d 503      -7.799  51.516 176.605  0.00  0.00     0.251 S 
ATOM     70  O6S SGN d 503      -6.693  51.253 175.770  0.00  0.00    -0.572 OA
ATOM     71  O4S SGN d 503      -8.476  52.689 176.165  0.00  0.00    -0.572 OA
ATOM     72  O5S SGN d 503      -7.500  51.563 178.033  0.00  0.00    -0.572 OA
ENDBRANCH  68  69
ENDBRANCH  67  68
ENDBRANCH  62  67
BRANCH  64  73
ATOM     73  O4  IDS d 502      -8.409  49.225 172.288  0.00  0.00    -0.348 OA
BRANCH  73  74
ATOM     74  C4  IDS d 502      -7.100  49.734 172.303  0.00  0.00     0.195 C 
ATOM     75  C3  IDS d 502      -6.187  48.839 171.443  0.00  0.00     0.185 C 
ATOM     76  C2  IDS d 502      -6.525  48.979 169.956  0.00  0.00     0.231 C 
ATOM     77  C1  IDS d 502      -6.633  50.441 169.533  0.00  0.00     0.291 C 
ATOM     78  O5  IDS d 502      -7.486  51.159 170.388  0.00  0.00    -0.340 OA
ATOM     79  C5  IDS d 502      -7.102  51.157 171.748  0.00  0.00     0.257 C 
BRANCH  75  80
ATOM     80  O3  IDS d 502      -4.844  49.240 171.627  0.00  0.00    -0.390 OA
ATOM     81  H   IDS d 502      -4.433  48.689 172.311  0.00  0.00     0.210 HD
ENDBRANCH  75  80
BRANCH  76  82
ATOM     82  O2  IDS d 502      -7.775  48.375 169.754  0.00  0.00    -0.244 OA
BRANCH  82  83
ATOM     83  S   IDS d 502      -8.314  47.704 168.447  0.00  0.00     0.252 S 
ATOM     84  O3S IDS d 502      -7.135  47.259 167.750  0.00  0.00    -0.572 OA
ATOM     85  O2S IDS d 502      -9.049  48.733 167.750  0.00  0.00    -0.572 OA
ATOM     86  O1S IDS d 502      -9.152  46.608 168.846  0.00  0.00    -0.572 OA
ENDBRANCH  82  83
ENDBRANCH  76  82
BRANCH  77  87
ATOM     87  O1  IDS d 502      -5.336  50.975 169.492  0.00  0.00    -0.368 OA
ATOM     88  H   IDS d 502      -5.139  51.276 168.591  0.00  0.00     0.212 HD
ENDBRANCH  77  87
BRANCH  79  89
ATOM     89  C6  IDS d 502      -7.947  52.138 172.549  0.00  0.00     0.206 C 
ATOM     90  O61 IDS d 502      -9.145  52.014 172.625  0.00  0.00    -0.646 OA
ATOM     91  O62 IDS d 502      -7.436  53.070 173.137  0.00  0.00    -0.646 OA
ENDBRANCH  79  89
ENDBRANCH  73  74
ENDBRANCH  64  73
BRANCH  65  92
ATOM     92  N   SGN d 503      -9.630  46.735 171.620  0.00  0.00    -0.210 NA
ATOM     93  H   SGN d 503      -8.625  46.764 171.452  0.00  0.00     0.140 HD
BRANCH  92  94
ATOM     94  S1  SGN d 503     -10.103  45.184 171.475  0.00  0.00     0.156 S 
BRANCH  94  95
ATOM     95  O2S SGN d 503      -8.980  44.413 170.943  0.00  0.00    -0.296 OA
ATOM     96  H   SGN d 503      -9.307  43.572 170.586  0.00  0.00     0.231 HD
ENDBRANCH  94  95
BRANCH  94  97
ATOM     97  O1S SGN d 503     -11.237  45.190 170.570  0.00  0.00    -0.296 OA
ATOM     98  H   SGN d 503     -10.919  45.220 169.654  0.00  0.00     0.231 HD
ENDBRANCH  94  97
BRANCH  94  99
ATOM     99  O3S SGN d 503     -10.473  44.823 172.824  0.00  0.00    -0.296 OA
ATOM    100  H   SGN d 503     -10.371  43.867 172.943  0.00  0.00     0.231 HD
ENDBRANCH  94  99
ENDBRANCH  92  94
ENDBRANCH  65  92
BRANCH  66 101
ATOM    101  O3  SGN d 503     -12.271  47.326 172.687  0.00  0.00    -0.391 OA
ATOM    102  H   SGN d 503     -12.901  47.462 173.411  0.00  0.00     0.210 HD
ENDBRANCH  66 101
ENDBRANCH  60  61
ENDBRANCH   3  60
TORSDOF 40
ENDMDL
MODEL 56
REMARK VINA RESULT:      -2.5      4.473     12.019
REMARK WARNING: 32 MAX_TORS EXCEEDED!!!
REMARK  40 active torsions:
REMARK  status: ('A' for Active; 'I' for Inactive)
REMARK    1 I    between atoms: C6_1  and  C5_8 
REMARK    2 I    between atoms: C6_1  and  O6_57 
REMARK    3 I    between atoms: O4_2  and  C4_49 
REMARK    4 I    between atoms: O6_3  and  C6_7 
REMARK    5 I    between atoms: O6_3  and  S2_58 
REMARK    6 I    between atoms: S_4  and  O2_6 
REMARK    7 I    between atoms: O3_5  and  C3_81 
REMARK    8 I    between atoms: O2_6  and  C2_11 
REMARK    9 I    between atoms: C6_7  and  C5_54 
REMARK   10 I    between atoms: O4_9  and  C4_32 
REMARK   11 I    between atoms: O4_9  and  C1_39 
REMARK   12 I    between atoms: O3_12  and  C3_18 
REMARK   13 I    between atoms: N_13  and  C2_52 
REMARK   14 I    between atoms: N_13  and  S1_45 
REMARK   15 I    between atoms: O3_17  and  C3_83 
REMARK   16 I    between atoms: C4_20  and  O4_44 
REMARK   17 I    between atoms: N_21  and  C2_66 
REMARK   18 I    between atoms: N_21  and  S1_53 
REMARK   19 I    between atoms: O3_22  and  C3_65 
REMARK   20 I    between atoms: C4_23  and  O4_74 
REMARK   21 I    between atoms: C1_25  and  O1_72 
REMARK   22 I    between atoms: C2_28  and  O2_69 
REMARK   23 I    between atoms: C4_33  and  O4_61 
REMARK   24 I    between atoms: O2S_34  and  S1_45 
REMARK   25 I    between atoms: C6_37  and  C5_47 
REMARK   26 I    between atoms: O2_38  and  C2_77 
REMARK   27 I    between atoms: O2_38  and  S_50 
REMARK   28 I    between atoms: O3S_40  and  S1_53 
REMARK   29 I    between atoms: O1S_42  and  S1_45 
REMARK   30 I    between atoms: O1S_43  and  S1_53 
REMARK   31 I    between atoms: O4_44  and  C1_46 
REMARK   32 I    between atoms: S1_45  and  O3S_60 
REMARK   33 I    between atoms: C6_48  and  C5_84 
REMARK   34 I    between atoms: C6_51  and  C5_87 
REMARK   35 I    between atoms: S1_53  and  O2S_55 
REMARK   36 I    between atoms: C1_56  and  O4_74 
REMARK   37 I    between atoms: O6_57  and  S2_82 
REMARK   38 I    between atoms: O4_61  and  C1_70 
REMARK   39 I    between atoms: C3_63  and  O3_79 
REMARK   40 I    between atoms: O2_69  and  S_76 
ROOT
ATOM      1  C3  IDS d 504     -14.738  51.111 174.314  0.00  0.00     0.185 C 
ATOM      2  C4  IDS d 504     -15.750  50.316 173.502  0.00  0.00     0.195 C 
ATOM      3  C1  IDS d 504     -13.371  48.941 174.501  0.00  0.00     0.294 C 
ATOM      4  O5  IDS d 504     -14.422  48.324 173.751  0.00  0.00    -0.340 OA
ATOM      5  C2  IDS d 504     -13.861  50.175 175.232  0.00  0.00     0.231 C 
ATOM      6  C5  IDS d 504     -15.029  49.168 172.799  0.00  0.00     0.257 C 
ENDROOT
BRANCH   2   7
ATOM      7  O4  IDS d 504     -16.752  49.806 174.370  0.00  0.00    -0.348 OA
BRANCH   7   8
ATOM      8  C1  SGN d 505     -18.058  49.990 173.897  0.00  0.00     0.282 C 
ATOM      9  O5  SGN d 505     -18.591  48.776 173.448  0.00  0.00    -0.349 OA
ATOM     10  C5  SGN d 505     -18.743  47.823 174.455  0.00  0.00     0.181 C 
ATOM     11  C4  SGN d 505     -19.747  48.284 175.461  0.00  0.00     0.186 C 
ATOM     12  C3  SGN d 505     -19.161  49.567 176.119  0.00  0.00     0.173 C 
ATOM     13  C2  SGN d 505     -18.961  50.572 174.968  0.00  0.00     0.157 C 
BRANCH  10  14
ATOM     14  C6  SGN d 505     -19.144  46.555 173.774  0.00  0.00     0.227 C 
BRANCH  14  15
ATOM     15  O6  SGN d 505     -19.350  46.904 172.448  0.00  0.00    -0.254 OA
BRANCH  15  16
ATOM     16  S2  SGN d 505     -20.634  46.757 171.645  0.00  0.00     0.251 S 
ATOM     17  O5S SGN d 505     -21.687  46.875 172.622  0.00  0.00    -0.572 OA
ATOM     18  O4S SGN d 505     -20.533  45.455 171.026  0.00  0.00    -0.572 OA
ATOM     19  O6S SGN d 505     -20.652  47.842 170.673  0.00  0.00    -0.572 OA
ENDBRANCH  15  16
ENDBRANCH  14  15
ENDBRANCH  10  14
BRANCH  11  20
ATOM     20  O4  SGN d 505     -19.950  47.191 176.332  0.00  0.00    -0.348 OA
BRANCH  20  21
ATOM     21  C1  IDS d 506     -21.171  46.894 176.918  0.00  0.00     0.294 C 
ATOM     22  C2  IDS d 506     -21.043  45.574 177.692  0.00  0.00     0.231 C 
ATOM     23  C3  IDS d 506     -22.412  44.968 178.105  0.00  0.00     0.185 C 
ATOM     24  C4  IDS d 506     -23.517  45.149 177.043  0.00  0.00     0.189 C 
ATOM     25  C5  IDS d 506     -23.406  46.522 176.373  0.00  0.00     0.256 C 
ATOM     26  O5  IDS d 506     -22.116  46.717 175.894  0.00  0.00    -0.340 OA
BRANCH  22  27
ATOM     27  O2  IDS d 506     -20.389  44.605 176.895  0.00  0.00    -0.244 OA
BRANCH  27  28
ATOM     28  S   IDS d 506     -19.109  43.736 177.256  0.00  0.00     0.252 S 
ATOM     29  O1S IDS d 506     -19.327  43.292 178.598  0.00  0.00    -0.572 OA
ATOM     30  O2S IDS d 506     -19.054  42.625 176.348  0.00  0.00    -0.572 OA
ATOM     31  O3S IDS d 506     -17.982  44.634 177.129  0.00  0.00    -0.572 OA
ENDBRANCH  27  28
ENDBRANCH  22  27
BRANCH  23  32
ATOM     32  O3  IDS d 506     -22.838  45.593 179.313  0.00  0.00    -0.390 OA
ATOM     33  H   IDS d 506     -23.216  44.926 179.907  0.00  0.00     0.210 HD
ENDBRANCH  23  32
BRANCH  24  34
ATOM     34  O4  IDS d 506     -23.343  44.135 176.081  0.00  0.00    -0.390 OA
ATOM     35  H   IDS d 506     -23.814  44.375 175.268  0.00  0.00     0.210 HD
ENDBRANCH  24  34
BRANCH  25  36
ATOM     36  C6  IDS d 506     -24.403  46.822 175.269  0.00  0.00     0.206 C 
ATOM     37  O62 IDS d 506     -25.290  46.040 174.969  0.00  0.00    -0.646 OA
ATOM     38  O61 IDS d 506     -24.342  47.881 174.660  0.00  0.00    -0.646 OA
ENDBRANCH  25  36
ENDBRANCH  20  21
ENDBRANCH  11  20
BRANCH  12  39
ATOM     39  O3  SGN d 505     -20.086  50.120 177.045  0.00  0.00    -0.391 OA
ATOM     40  H   SGN d 505     -20.965  50.167 176.636  0.00  0.00     0.210 HD
ENDBRANCH  12  39
BRANCH  13  41
ATOM     41  N   SGN d 505     -18.449  51.903 175.369  0.00  0.00    -0.210 NA
ATOM     42  H   SGN d 505     -19.244  52.541 175.396  0.00  0.00     0.140 HD
BRANCH  41  43
ATOM     43  S1  SGN d 505     -17.666  52.017 176.846  0.00  0.00     0.156 S 
BRANCH  43  44
ATOM     44  O3S SGN d 505     -16.602  52.942 176.680  0.00  0.00    -0.296 OA
ATOM     45  H   SGN d 505     -16.757  53.473 175.883  0.00  0.00     0.231 HD
ENDBRANCH  43  44
BRANCH  43  46
ATOM     46  O1S SGN d 505     -18.640  52.447 177.827  0.00  0.00    -0.296 OA
ATOM     47  H   SGN d 505     -19.077  53.255 177.516  0.00  0.00     0.231 HD
ENDBRANCH  43  46
BRANCH  43  48
ATOM     48  O2S SGN d 505     -17.170  50.686 177.108  0.00  0.00    -0.296 OA
ATOM     49  H   SGN d 505     -16.201  50.704 177.148  0.00  0.00     0.231 HD
ENDBRANCH  43  48
ENDBRANCH  41  43
ENDBRANCH  13  41
ENDBRANCH   7   8
ENDBRANCH   2   7
BRANCH   1  50
ATOM     50  O3  IDS d 504     -13.901  51.791 173.388  0.00  0.00    -0.390 OA
ATOM     51  H   IDS d 504     -14.431  52.090 172.632  0.00  0.00     0.210 HD
ENDBRANCH   1  50
BRANCH   6  52
ATOM     52  C6  IDS d 504     -15.897  48.349 171.829  0.00  0.00     0.206 C 
ATOM     53  O62 IDS d 504     -16.043  47.133 171.976  0.00  0.00    -0.646 OA
ATOM     54  O61 IDS d 504     -16.450  48.882 170.876  0.00  0.00    -0.646 OA
ENDBRANCH   6  52
BRANCH   5  55
ATOM     55  O2  IDS d 504     -14.608  49.753 176.372  0.00  0.00    -0.244 OA
BRANCH  55  56
ATOM     56  S   IDS d 504     -14.212  49.934 177.849  0.00  0.00     0.252 S 
ATOM     57  O2S IDS d 504     -15.008  49.028 178.625  0.00  0.00    -0.572 OA
ATOM     58  O3S IDS d 504     -12.823  49.664 177.857  0.00  0.00    -0.572 OA
ATOM     59  O1S IDS d 504     -14.491  51.285 178.175  0.00  0.00    -0.572 OA
ENDBRANCH  55  56
ENDBRANCH   5  55
BRANCH   3  60
ATOM     60  O4  SGN d 503     -12.285  49.308 173.700  0.00  0.00    -0.348 OA
BRANCH  60  61
ATOM     61  C4  SGN d 503     -11.450  48.249 173.360  0.00  0.00     0.186 C 
ATOM     62  C5  SGN d 503     -10.237  48.253 174.307  0.00  0.00     0.181 C 
ATOM     63  O5  SGN d 503      -9.314  47.275 173.942  0.00  0.00    -0.349 OA
ATOM     64  C1  SGN d 503      -8.781  47.463 172.655  0.00  0.00     0.282 C 
ATOM     65  C2  SGN d 503      -9.913  47.413 171.618  0.00  0.00     0.157 C 
ATOM     66  C3  SGN d 503     -10.990  48.440 171.916  0.00  0.00     0.173 C 
BRANCH  62  67
ATOM     67  C6  SGN d 503     -10.568  47.946 175.742  0.00  0.00     0.227 C 
BRANCH  67  68
ATOM     68  O6  SGN d 503     -10.644  46.543 175.870  0.00  0.00    -0.254 OA
BRANCH  68  69
ATOM     69  S2  SGN d 503     -11.876  45.748 176.378  0.00  0.00     0.251 S 
ATOM     70  O6S SGN d 503     -12.470  46.615 177.319  0.00  0.00    -0.572 OA
ATOM     71  O4S SGN d 503     -12.758  45.540 175.280  0.00  0.00    -0.572 OA
ATOM     72  O5S SGN d 503     -11.378  44.489 176.923  0.00  0.00    -0.572 OA
ENDBRANCH  68  69
ENDBRANCH  67  68
ENDBRANCH  62  67
BRANCH  64  73
ATOM     73  O4  IDS d 502      -8.072  48.669 172.564  0.00  0.00    -0.348 OA
BRANCH  73  74
ATOM     74  C4  IDS d 502      -6.804  48.653 173.167  0.00  0.00     0.195 C 
ATOM     75  C3  IDS d 502      -5.748  48.210 172.137  0.00  0.00     0.185 C 
ATOM     76  C2  IDS d 502      -5.537  49.288 171.070  0.00  0.00     0.231 C 
ATOM     77  C1  IDS d 502      -5.342  50.669 171.688  0.00  0.00     0.291 C 
ATOM     78  O5  IDS d 502      -6.360  50.964 172.612  0.00  0.00    -0.340 OA
ATOM     79  C5  IDS d 502      -6.470  50.050 173.685  0.00  0.00     0.257 C 
BRANCH  75  80
ATOM     80  O3  IDS d 502      -4.516  48.004 172.801  0.00  0.00    -0.390 OA
ATOM     81  H   IDS d 502      -3.790  48.310 172.237  0.00  0.00     0.210 HD
ENDBRANCH  75  80
BRANCH  76  82
ATOM     82  O2  IDS d 502      -6.695  49.325 170.280  0.00  0.00    -0.244 OA
BRANCH  82  83
ATOM     83  S   IDS d 502      -6.789  49.481 168.726  0.00  0.00     0.252 S 
ATOM     84  O3S IDS d 502      -8.201  49.551 168.449  0.00  0.00    -0.572 OA
ATOM     85  O2S IDS d 502      -6.144  48.313 168.172  0.00  0.00    -0.572 OA
ATOM     86  O1S IDS d 502      -6.109  50.697 168.378  0.00  0.00    -0.572 OA
ENDBRANCH  82  83
ENDBRANCH  76  82
BRANCH  77  87
ATOM     87  O1  IDS d 502      -4.063  50.708 172.264  0.00  0.00    -0.368 OA
ATOM     88  H   IDS d 502      -3.443  51.124 171.645  0.00  0.00     0.212 HD
ENDBRANCH  77  87
BRANCH  79  89
ATOM     89  C6  IDS d 502      -7.434  50.573 174.740  0.00  0.00     0.206 C 
ATOM     90  O61 IDS d 502      -7.499  50.068 175.834  0.00  0.00    -0.646 OA
ATOM     91  O62 IDS d 502      -8.163  51.518 174.509  0.00  0.00    -0.646 OA
ENDBRANCH  79  89
ENDBRANCH  73  74
ENDBRANCH  64  73
BRANCH  65  92
ATOM     92  N   SGN d 503      -9.382  47.577 170.277  0.00  0.00    -0.210 NA
ATOM     93  H   SGN d 503      -8.676  48.312 170.315  0.00  0.00     0.140 HD
BRANCH  92  94
ATOM     94  S1  SGN d 503      -8.695  46.279 169.575  0.00  0.00     0.156 S 
BRANCH  94  95
ATOM     95  O2S SGN d 503      -7.326  46.160 170.077  0.00  0.00    -0.296 OA
ATOM     96  H   SGN d 503      -7.184  45.261 170.414  0.00  0.00     0.231 HD
ENDBRANCH  94  95
BRANCH  94  97
ATOM     97  O1S SGN d 503      -8.731  46.526 168.146  0.00  0.00    -0.296 OA
ATOM     98  H   SGN d 503      -8.245  47.342 167.946  0.00  0.00     0.231 HD
ENDBRANCH  94  97
BRANCH  94  99
ATOM     99  O3S SGN d 503      -9.560  45.191 169.971  0.00  0.00    -0.296 OA
ATOM    100  H   SGN d 503      -9.791  45.287 170.907  0.00  0.00     0.231 HD
ENDBRANCH  94  99
ENDBRANCH  92  94
ENDBRANCH  65  92
BRANCH  66 101
ATOM    101  O3  SGN d 503     -12.104  48.229 171.068  0.00  0.00    -0.391 OA
ATOM    102  H   SGN d 503     -11.838  47.679 170.316  0.00  0.00     0.210 HD
ENDBRANCH  66 101
ENDBRANCH  60  61
ENDBRANCH   3  60
TORSDOF 40
ENDMDL
MODEL 57
REMARK VINA RESULT:      -2.5      3.054     12.810
REMARK WARNING: 32 MAX_TORS EXCEEDED!!!
REMARK  40 active torsions:
REMARK  status: ('A' for Active; 'I' for Inactive)
REMARK    1 I    between atoms: C6_1  and  C5_8 
REMARK    2 I    between atoms: C6_1  and  O6_57 
REMARK    3 I    between atoms: O4_2  and  C4_49 
REMARK    4 I    between atoms: O6_3  and  C6_7 
REMARK    5 I    between atoms: O6_3  and  S2_58 
REMARK    6 I    between atoms: S_4  and  O2_6 
REMARK    7 I    between atoms: O3_5  and  C3_81 
REMARK    8 I    between atoms: O2_6  and  C2_11 
REMARK    9 I    between atoms: C6_7  and  C5_54 
REMARK   10 I    between atoms: O4_9  and  C4_32 
REMARK   11 I    between atoms: O4_9  and  C1_39 
REMARK   12 I    between atoms: O3_12  and  C3_18 
REMARK   13 I    between atoms: N_13  and  C2_52 
REMARK   14 I    between atoms: N_13  and  S1_45 
REMARK   15 I    between atoms: O3_17  and  C3_83 
REMARK   16 I    between atoms: C4_20  and  O4_44 
REMARK   17 I    between atoms: N_21  and  C2_66 
REMARK   18 I    between atoms: N_21  and  S1_53 
REMARK   19 I    between atoms: O3_22  and  C3_65 
REMARK   20 I    between atoms: C4_23  and  O4_74 
REMARK   21 I    between atoms: C1_25  and  O1_72 
REMARK   22 I    between atoms: C2_28  and  O2_69 
REMARK   23 I    between atoms: C4_33  and  O4_61 
REMARK   24 I    between atoms: O2S_34  and  S1_45 
REMARK   25 I    between atoms: C6_37  and  C5_47 
REMARK   26 I    between atoms: O2_38  and  C2_77 
REMARK   27 I    between atoms: O2_38  and  S_50 
REMARK   28 I    between atoms: O3S_40  and  S1_53 
REMARK   29 I    between atoms: O1S_42  and  S1_45 
REMARK   30 I    between atoms: O1S_43  and  S1_53 
REMARK   31 I    between atoms: O4_44  and  C1_46 
REMARK   32 I    between atoms: S1_45  and  O3S_60 
REMARK   33 I    between atoms: C6_48  and  C5_84 
REMARK   34 I    between atoms: C6_51  and  C5_87 
REMARK   35 I    between atoms: S1_53  and  O2S_55 
REMARK   36 I    between atoms: C1_56  and  O4_74 
REMARK   37 I    between atoms: O6_57  and  S2_82 
REMARK   38 I    between atoms: O4_61  and  C1_70 
REMARK   39 I    between atoms: C3_63  and  O3_79 
REMARK   40 I    between atoms: O2_69  and  S_76 
ROOT
ATOM      1  C3  IDS d 504     -17.711  48.132 174.755  0.00  0.00     0.185 C 
ATOM      2  C4  IDS d 504     -17.137  49.538 174.841  0.00  0.00     0.195 C 
ATOM      3  C1  IDS d 504     -16.879  48.076 172.323  0.00  0.00     0.294 C 
ATOM      4  O5  IDS d 504     -16.417  49.412 172.548  0.00  0.00    -0.340 OA
ATOM      5  C2  IDS d 504     -18.010  47.714 173.264  0.00  0.00     0.231 C 
ATOM      6  C5  IDS d 504     -15.971  49.658 173.862  0.00  0.00     0.257 C 
ENDROOT
BRANCH   2   7
ATOM      7  O4  IDS d 504     -18.149  50.479 174.514  0.00  0.00    -0.348 OA
BRANCH   7   8
ATOM      8  C1  SGN d 505     -19.019  50.768 175.575  0.00  0.00     0.282 C 
ATOM      9  O5  SGN d 505     -18.495  51.793 176.371  0.00  0.00    -0.349 OA
ATOM     10  C5  SGN d 505     -18.378  53.014 175.708  0.00  0.00     0.181 C 
ATOM     11  C4  SGN d 505     -19.727  53.533 175.330  0.00  0.00     0.186 C 
ATOM     12  C3  SGN d 505     -20.329  52.512 174.321  0.00  0.00     0.173 C 
ATOM     13  C2  SGN d 505     -20.393  51.169 175.075  0.00  0.00     0.157 C 
BRANCH  10  14
ATOM     14  C6  SGN d 505     -17.646  53.927 176.638  0.00  0.00     0.227 C 
BRANCH  14  15
ATOM     15  O6  SGN d 505     -16.554  54.383 175.915  0.00  0.00    -0.254 OA
BRANCH  15  16
ATOM     16  S2  SGN d 505     -15.176  54.739 176.454  0.00  0.00     0.251 S 
ATOM     17  O5S SGN d 505     -14.344  54.840 175.281  0.00  0.00    -0.572 OA
ATOM     18  O4S SGN d 505     -14.835  53.648 177.339  0.00  0.00    -0.572 OA
ATOM     19  O6S SGN d 505     -15.311  56.009 177.154  0.00  0.00    -0.572 OA
ENDBRANCH  15  16
ENDBRANCH  14  15
ENDBRANCH  10  14
BRANCH  11  20
ATOM     20  O4  SGN d 505     -19.512  54.834 174.825  0.00  0.00    -0.348 OA
BRANCH  20  21
ATOM     21  C1  IDS d 506     -20.499  55.806 174.764  0.00  0.00     0.294 C 
ATOM     22  C2  IDS d 506     -19.891  57.098 174.201  0.00  0.00     0.231 C 
ATOM     23  C3  IDS d 506     -20.799  58.343 174.399  0.00  0.00     0.185 C 
ATOM     24  C4  IDS d 506     -21.552  58.354 175.746  0.00  0.00     0.189 C 
ATOM     25  C5  IDS d 506     -22.016  56.943 176.120  0.00  0.00     0.256 C 
ATOM     26  O5  IDS d 506     -20.944  56.060 176.072  0.00  0.00    -0.340 OA
BRANCH  22  27
ATOM     27  O2  IDS d 506     -18.664  57.379 174.846  0.00  0.00    -0.244 OA
BRANCH  27  28
ATOM     28  S   IDS d 506     -17.271  57.767 174.187  0.00  0.00     0.252 S 
ATOM     29  O1S IDS d 506     -17.581  58.795 173.241  0.00  0.00    -0.572 OA
ATOM     30  O2S IDS d 506     -16.409  58.262 175.223  0.00  0.00    -0.572 OA
ATOM     31  O3S IDS d 506     -16.783  56.553 173.570  0.00  0.00    -0.572 OA
ENDBRANCH  27  28
ENDBRANCH  22  27
BRANCH  23  32
ATOM     32  O3  IDS d 506     -21.756  58.377 173.344  0.00  0.00    -0.390 OA
ATOM     33  H   IDS d 506     -21.300  58.498 172.496  0.00  0.00     0.210 HD
ENDBRANCH  23  32
BRANCH  24  34
ATOM     34  O4  IDS d 506     -20.657  58.835 176.722  0.00  0.00    -0.390 OA
ATOM     35  H   IDS d 506     -20.811  59.782 176.865  0.00  0.00     0.210 HD
ENDBRANCH  24  34
BRANCH  25  36
ATOM     36  C6  IDS d 506     -22.732  56.794 177.450  0.00  0.00     0.206 C 
ATOM     37  O62 IDS d 506     -23.798  56.211 177.548  0.00  0.00    -0.646 OA
ATOM     38  O61 IDS d 506     -22.233  57.252 178.468  0.00  0.00    -0.646 OA
ENDBRANCH  25  36
ENDBRANCH  20  21
ENDBRANCH  11  20
BRANCH  12  39
ATOM     39  O3  SGN d 505     -21.651  52.889 173.958  0.00  0.00    -0.391 OA
ATOM     40  H   SGN d 505     -21.876  53.730 174.385  0.00  0.00     0.210 HD
ENDBRANCH  12  39
BRANCH  13  41
ATOM     41  N   SGN d 505     -20.986  50.043 174.316  0.00  0.00    -0.210 NA
ATOM     42  H   SGN d 505     -20.218  49.523 173.891  0.00  0.00     0.140 HD
BRANCH  41  43
ATOM     43  S1  SGN d 505     -21.925  48.947 175.167  0.00  0.00     0.156 S 
BRANCH  43  44
ATOM     44  O3S SGN d 505     -22.064  49.455 176.485  0.00  0.00    -0.296 OA
ATOM     45  H   SGN d 505     -22.877  49.981 176.544  0.00  0.00     0.231 HD
ENDBRANCH  43  44
BRANCH  43  46
ATOM     46  O1S SGN d 505     -23.189  48.822 174.472  0.00  0.00    -0.296 OA
ATOM     47  H   SGN d 505     -23.909  49.096 175.061  0.00  0.00     0.231 HD
ENDBRANCH  43  46
BRANCH  43  48
ATOM     48  O2S SGN d 505     -21.166  47.718 175.154  0.00  0.00    -0.296 OA
ATOM     49  H   SGN d 505     -20.826  47.557 174.260  0.00  0.00     0.231 HD
ENDBRANCH  43  48
ENDBRANCH  41  43
ENDBRANCH  13  41
ENDBRANCH   7   8
ENDBRANCH   2   7
BRANCH   1  50
ATOM     50  O3  IDS d 504     -16.745  47.251 175.313  0.00  0.00    -0.390 OA
ATOM     51  H   IDS d 504     -16.241  47.717 175.999  0.00  0.00     0.210 HD
ENDBRANCH   1  50
BRANCH   6  52
ATOM     52  C6  IDS d 504     -15.198  50.986 173.927  0.00  0.00     0.206 C 
ATOM     53  O62 IDS d 504     -15.084  51.605 174.987  0.00  0.00    -0.646 OA
ATOM     54  O61 IDS d 504     -14.691  51.469 172.923  0.00  0.00    -0.646 OA
ENDBRANCH   6  52
BRANCH   5  55
ATOM     55  O2  IDS d 504     -19.201  48.346 172.798  0.00  0.00    -0.244 OA
BRANCH  55  56
ATOM     56  S   IDS d 504     -20.103  47.871 171.644  0.00  0.00     0.252 S 
ATOM     57  O2S IDS d 504     -19.852  48.722 170.518  0.00  0.00    -0.572 OA
ATOM     58  O3S IDS d 504     -19.729  46.518 171.463  0.00  0.00    -0.572 OA
ATOM     59  O1S IDS d 504     -21.438  47.993 172.105  0.00  0.00    -0.572 OA
ENDBRANCH  55  56
ENDBRANCH   5  55
BRANCH   3  60
ATOM     60  O4  SGN d 503     -15.863  47.126 172.470  0.00  0.00    -0.348 OA
BRANCH  60  61
ATOM     61  C4  SGN d 503     -15.171  46.850 171.296  0.00  0.00     0.186 C 
ATOM     62  C5  SGN d 503     -15.116  45.324 171.103  0.00  0.00     0.181 C 
ATOM     63  O5  SGN d 503     -14.342  44.988 169.995  0.00  0.00    -0.349 OA
ATOM     64  C1  SGN d 503     -13.001  45.397 170.106  0.00  0.00     0.282 C 
ATOM     65  C2  SGN d 503     -12.941  46.925 170.241  0.00  0.00     0.157 C 
ATOM     66  C3  SGN d 503     -13.759  47.415 171.422  0.00  0.00     0.173 C 
BRANCH  62  67
ATOM     67  C6  SGN d 503     -16.451  44.682 170.842  0.00  0.00     0.227 C 
BRANCH  67  68
ATOM     68  O6  SGN d 503     -16.535  43.530 171.653  0.00  0.00    -0.254 OA
BRANCH  68  69
ATOM     69  S2  SGN d 503     -17.387  43.395 172.943  0.00  0.00     0.251 S 
ATOM     70  O6S SGN d 503     -17.030  42.128 173.450  0.00  0.00    -0.572 OA
ATOM     71  O4S SGN d 503     -16.988  44.416 173.852  0.00  0.00    -0.572 OA
ATOM     72  O5S SGN d 503     -18.786  43.533 172.548  0.00  0.00    -0.572 OA
ENDBRANCH  68  69
ENDBRANCH  67  68
ENDBRANCH  62  67
BRANCH  64  73
ATOM     73  O4  IDS d 502     -12.362  44.773 171.186  0.00  0.00    -0.348 OA
BRANCH  73  74
ATOM     74  C4  IDS d 502     -11.592  43.649 170.845  0.00  0.00     0.195 C 
ATOM     75  C3  IDS d 502     -10.112  44.057 170.714  0.00  0.00     0.185 C 
ATOM     76  C2  IDS d 502      -9.515  44.400 172.082  0.00  0.00     0.231 C 
ATOM     77  C1  IDS d 502      -9.834  43.334 173.126  0.00  0.00     0.291 C 
ATOM     78  O5  IDS d 502     -11.209  43.041 173.154  0.00  0.00    -0.340 OA
ATOM     79  C5  IDS d 502     -11.743  42.583 171.927  0.00  0.00     0.257 C 
BRANCH  75  80
ATOM     80  O3  IDS d 502      -9.382  42.971 170.177  0.00  0.00    -0.390 OA
ATOM     81  H   IDS d 502      -9.367  42.244 170.819  0.00  0.00     0.210 HD
ENDBRANCH  75  80
BRANCH  76  82
ATOM     82  O2  IDS d 502     -10.098  45.605 172.501  0.00  0.00    -0.244 OA
BRANCH  82  83
ATOM     83  S   IDS d 502      -9.437  46.748 173.339  0.00  0.00     0.252 S 
ATOM     84  O3S IDS d 502      -9.945  47.967 172.764  0.00  0.00    -0.572 OA
ATOM     85  O2S IDS d 502      -8.011  46.580 173.180  0.00  0.00    -0.572 OA
ATOM     86  O1S IDS d 502      -9.859  46.576 174.701  0.00  0.00    -0.572 OA
ENDBRANCH  82  83
ENDBRANCH  76  82
BRANCH  77  87
ATOM     87  O1  IDS d 502      -9.048  42.206 172.844  0.00  0.00    -0.368 OA
ATOM     88  H   IDS d 502      -8.951  42.112 171.883  0.00  0.00     0.212 HD
ENDBRANCH  77  87
BRANCH  79  89
ATOM     89  C6  IDS d 502     -13.167  42.080 172.115  0.00  0.00     0.206 C 
ATOM     90  O61 IDS d 502     -13.830  41.710 171.176  0.00  0.00    -0.646 OA
ATOM     91  O62 IDS d 502     -13.674  42.033 173.219  0.00  0.00    -0.646 OA
ENDBRANCH  79  89
ENDBRANCH  73  74
ENDBRANCH  64  73
BRANCH  65  92
ATOM     92  N   SGN d 503     -11.563  47.374 170.329  0.00  0.00    -0.210 NA
ATOM     93  H   SGN d 503     -10.966  46.566 170.152  0.00  0.00     0.140 HD
BRANCH  92  94
ATOM     94  S1  SGN d 503     -11.090  48.558 169.317  0.00  0.00     0.156 S 
BRANCH  94  95
ATOM     95  O2S SGN d 503     -12.268  49.343 168.951  0.00  0.00    -0.296 OA
ATOM     96  H   SGN d 503     -12.039  50.286 168.950  0.00  0.00     0.231 HD
ENDBRANCH  94  95
BRANCH  94  97
ATOM     97  O1S SGN d 503     -10.498  47.897 168.169  0.00  0.00    -0.296 OA
ATOM     98  H   SGN d 503      -9.584  48.200 168.058  0.00  0.00     0.231 HD
ENDBRANCH  94  97
BRANCH  94  99
ATOM     99  O3S SGN d 503     -10.117  49.291 170.096  0.00  0.00    -0.296 OA
ATOM    100  H   SGN d 503      -9.808  50.057 169.589  0.00  0.00     0.231 HD
ENDBRANCH  94  99
ENDBRANCH  92  94
ENDBRANCH  65  92
BRANCH  66 101
ATOM    101  O3  SGN d 503     -13.846  48.827 171.395  0.00  0.00    -0.391 OA
ATOM    102  H   SGN d 503     -13.899  49.165 172.303  0.00  0.00     0.210 HD
ENDBRANCH  66 101
ENDBRANCH  60  61
ENDBRANCH   3  60
TORSDOF 40
ENDMDL
MODEL 58
REMARK VINA RESULT:      -2.5      2.440      3.427
REMARK WARNING: 32 MAX_TORS EXCEEDED!!!
REMARK  40 active torsions:
REMARK  status: ('A' for Active; 'I' for Inactive)
REMARK    1 I    between atoms: C6_1  and  C5_8 
REMARK    2 I    between atoms: C6_1  and  O6_57 
REMARK    3 I    between atoms: O4_2  and  C4_49 
REMARK    4 I    between atoms: O6_3  and  C6_7 
REMARK    5 I    between atoms: O6_3  and  S2_58 
REMARK    6 I    between atoms: S_4  and  O2_6 
REMARK    7 I    between atoms: O3_5  and  C3_81 
REMARK    8 I    between atoms: O2_6  and  C2_11 
REMARK    9 I    between atoms: C6_7  and  C5_54 
REMARK   10 I    between atoms: O4_9  and  C4_32 
REMARK   11 I    between atoms: O4_9  and  C1_39 
REMARK   12 I    between atoms: O3_12  and  C3_18 
REMARK   13 I    between atoms: N_13  and  C2_52 
REMARK   14 I    between atoms: N_13  and  S1_45 
REMARK   15 I    between atoms: O3_17  and  C3_83 
REMARK   16 I    between atoms: C4_20  and  O4_44 
REMARK   17 I    between atoms: N_21  and  C2_66 
REMARK   18 I    between atoms: N_21  and  S1_53 
REMARK   19 I    between atoms: O3_22  and  C3_65 
REMARK   20 I    between atoms: C4_23  and  O4_74 
REMARK   21 I    between atoms: C1_25  and  O1_72 
REMARK   22 I    between atoms: C2_28  and  O2_69 
REMARK   23 I    between atoms: C4_33  and  O4_61 
REMARK   24 I    between atoms: O2S_34  and  S1_45 
REMARK   25 I    between atoms: C6_37  and  C5_47 
REMARK   26 I    between atoms: O2_38  and  C2_77 
REMARK   27 I    between atoms: O2_38  and  S_50 
REMARK   28 I    between atoms: O3S_40  and  S1_53 
REMARK   29 I    between atoms: O1S_42  and  S1_45 
REMARK   30 I    between atoms: O1S_43  and  S1_53 
REMARK   31 I    between atoms: O4_44  and  C1_46 
REMARK   32 I    between atoms: S1_45  and  O3S_60 
REMARK   33 I    between atoms: C6_48  and  C5_84 
REMARK   34 I    between atoms: C6_51  and  C5_87 
REMARK   35 I    between atoms: S1_53  and  O2S_55 
REMARK   36 I    between atoms: C1_56  and  O4_74 
REMARK   37 I    between atoms: O6_57  and  S2_82 
REMARK   38 I    between atoms: O4_61  and  C1_70 
REMARK   39 I    between atoms: C3_63  and  O3_79 
REMARK   40 I    between atoms: O2_69  and  S_76 
ROOT
ATOM      1  C3  IDS d 504     -16.981  47.633 174.480  0.00  0.00     0.185 C 
ATOM      2  C4  IDS d 504     -16.265  47.259 173.191  0.00  0.00     0.195 C 
ATOM      3  C1  IDS d 504     -17.334  49.967 173.462  0.00  0.00     0.294 C 
ATOM      4  O5  IDS d 504     -16.614  49.478 172.325  0.00  0.00    -0.340 OA
ATOM      5  C2  IDS d 504     -16.984  49.192 174.716  0.00  0.00     0.231 C 
ATOM      6  C5  IDS d 504     -16.820  48.111 172.052  0.00  0.00     0.257 C 
ENDROOT
BRANCH   2   7
ATOM      7  O4  IDS d 504     -14.872  47.493 173.343  0.00  0.00    -0.348 OA
BRANCH   7   8
ATOM      8  C1  SGN d 505     -14.162  46.389 173.835  0.00  0.00     0.282 C 
ATOM      9  O5  SGN d 505     -13.810  45.529 172.789  0.00  0.00    -0.349 OA
ATOM     10  C5  SGN d 505     -12.928  46.095 171.869  0.00  0.00     0.181 C 
ATOM     11  C4  SGN d 505     -11.617  46.394 172.521  0.00  0.00     0.186 C 
ATOM     12  C3  SGN d 505     -11.898  47.464 173.616  0.00  0.00     0.173 C 
ATOM     13  C2  SGN d 505     -12.912  46.817 174.579  0.00  0.00     0.157 C 
BRANCH  10  14
ATOM     14  C6  SGN d 505     -12.808  45.117 170.746  0.00  0.00     0.227 C 
BRANCH  14  15
ATOM     15  O6  SGN d 505     -12.537  43.900 171.353  0.00  0.00    -0.254 OA
BRANCH  15  16
ATOM     16  S2  SGN d 505     -12.849  42.511 170.814  0.00  0.00     0.251 S 
ATOM     17  O5S SGN d 505     -12.624  41.629 171.932  0.00  0.00    -0.572 OA
ATOM     18  O4S SGN d 505     -11.931  42.330 169.713  0.00  0.00    -0.572 OA
ATOM     19  O6S SGN d 505     -14.242  42.526 170.387  0.00  0.00    -0.572 OA
ENDBRANCH  15  16
ENDBRANCH  14  15
ENDBRANCH  10  14
BRANCH  11  20
ATOM     20  O4  SGN d 505     -10.754  46.800 171.480  0.00  0.00    -0.348 OA
BRANCH  20  21
ATOM     21  C1  IDS d 506      -9.467  46.310 171.316  0.00  0.00     0.294 C 
ATOM     22  C2  IDS d 506      -8.777  47.092 170.189  0.00  0.00     0.231 C 
ATOM     23  C3  IDS d 506      -7.468  46.422 169.686  0.00  0.00     0.185 C 
ATOM     24  C4  IDS d 506      -7.538  44.880 169.641  0.00  0.00     0.189 C 
ATOM     25  C5  IDS d 506      -8.320  44.337 170.841  0.00  0.00     0.256 C 
ATOM     26  O5  IDS d 506      -9.558  44.963 170.928  0.00  0.00    -0.340 OA
BRANCH  22  27
ATOM     27  O2  IDS d 506      -9.638  47.198 169.072  0.00  0.00    -0.244 OA
BRANCH  27  28
ATOM     28  S   IDS d 506     -10.076  48.508 168.287  0.00  0.00     0.252 S 
ATOM     29  O1S IDS d 506      -8.877  49.276 168.148  0.00  0.00    -0.572 OA
ATOM     30  O2S IDS d 506     -10.586  48.111 167.006  0.00  0.00    -0.572 OA
ATOM     31  O3S IDS d 506     -11.068  49.147 169.124  0.00  0.00    -0.572 OA
ENDBRANCH  27  28
ENDBRANCH  22  27
BRANCH  23  32
ATOM     32  O3  IDS d 506      -6.403  46.802 170.554  0.00  0.00    -0.390 OA
ATOM     33  H   IDS d 506      -5.585  46.363 170.273  0.00  0.00     0.210 HD
ENDBRANCH  23  32
BRANCH  24  34
ATOM     34  O4  IDS d 506      -8.195  44.527 168.446  0.00  0.00    -0.390 OA
ATOM     35  H   IDS d 506      -7.761  43.753 168.055  0.00  0.00     0.210 HD
ENDBRANCH  24  34
BRANCH  25  36
ATOM     36  C6  IDS d 506      -8.511  42.833 170.903  0.00  0.00     0.206 C 
ATOM     37  O62 IDS d 506      -9.212  42.304 171.749  0.00  0.00    -0.646 OA
ATOM     38  O61 IDS d 506      -7.966  42.113 170.078  0.00  0.00    -0.646 OA
ENDBRANCH  25  36
ENDBRANCH  20  21
ENDBRANCH  11  20
BRANCH  12  39
ATOM     39  O3  SGN d 505     -10.712  47.759 174.341  0.00  0.00    -0.391 OA
ATOM     40  H   SGN d 505     -10.828  47.502 175.269  0.00  0.00     0.210 HD
ENDBRANCH  12  39
BRANCH  13  41
ATOM     41  N   SGN d 505     -13.297  47.646 175.745  0.00  0.00    -0.210 NA
ATOM     42  H   SGN d 505     -14.221  48.033 175.554  0.00  0.00     0.140 HD
BRANCH  41  43
ATOM     43  S1  SGN d 505     -13.367  46.893 177.240  0.00  0.00     0.156 S 
BRANCH  43  44
ATOM     44  O3S SGN d 505     -13.117  47.890 178.219  0.00  0.00    -0.296 OA
ATOM     45  H   SGN d 505     -12.982  48.745 177.781  0.00  0.00     0.231 HD
ENDBRANCH  43  44
BRANCH  43  46
ATOM     46  O1S SGN d 505     -14.679  46.294 177.367  0.00  0.00    -0.296 OA
ATOM     47  H   SGN d 505     -14.652  45.595 178.038  0.00  0.00     0.231 HD
ENDBRANCH  43  46
BRANCH  43  48
ATOM     48  O2S SGN d 505     -12.312  45.907 177.211  0.00  0.00    -0.296 OA
ATOM     49  H   SGN d 505     -11.537  46.277 176.759  0.00  0.00     0.231 HD
ENDBRANCH  43  48
ENDBRANCH  41  43
ENDBRANCH  13  41
ENDBRANCH   7   8
ENDBRANCH   2   7
BRANCH   1  50
ATOM     50  O3  IDS d 504     -18.319  47.165 174.366  0.00  0.00    -0.390 OA
ATOM     51  H   IDS d 504     -18.838  47.484 175.121  0.00  0.00     0.210 HD
ENDBRANCH   1  50
BRANCH   6  52
ATOM     52  C6  IDS d 504     -16.288  47.756 170.653  0.00  0.00     0.206 C 
ATOM     53  O62 IDS d 504     -15.191  48.163 170.267  0.00  0.00    -0.646 OA
ATOM     54  O61 IDS d 504     -16.951  47.075 169.881  0.00  0.00    -0.646 OA
ENDBRANCH   6  52
BRANCH   5  55
ATOM     55  O2  IDS d 504     -15.705  49.630 175.171  0.00  0.00    -0.244 OA
BRANCH  55  56
ATOM     56  S   IDS d 504     -15.367  50.188 176.566  0.00  0.00     0.252 S 
ATOM     57  O2S IDS d 504     -16.096  51.410 176.733  0.00  0.00    -0.572 OA
ATOM     58  O3S IDS d 504     -15.745  49.144 177.443  0.00  0.00    -0.572 OA
ATOM     59  O1S IDS d 504     -13.967  50.409 176.579  0.00  0.00    -0.572 OA
ENDBRANCH  55  56
ENDBRANCH   5  55
BRANCH   3  60
ATOM     60  O4  SGN d 503     -18.720  49.910 173.282  0.00  0.00    -0.348 OA
BRANCH  60  61
ATOM     61  C4  SGN d 503     -19.218  50.874 172.412  0.00  0.00     0.186 C 
ATOM     62  C5  SGN d 503     -19.705  52.078 173.237  0.00  0.00     0.181 C 
ATOM     63  O5  SGN d 503     -20.312  53.031 172.420  0.00  0.00    -0.349 OA
ATOM     64  C1  SGN d 503     -21.453  52.550 171.755  0.00  0.00     0.282 C 
ATOM     65  C2  SGN d 503     -21.061  51.374 170.848  0.00  0.00     0.157 C 
ATOM     66  C3  SGN d 503     -20.380  50.266 171.631  0.00  0.00     0.173 C 
BRANCH  62  67
ATOM     67  C6  SGN d 503     -18.611  52.829 173.947  0.00  0.00     0.227 C 
BRANCH  67  68
ATOM     68  O6  SGN d 503     -19.179  54.007 174.477  0.00  0.00    -0.254 OA
BRANCH  68  69
ATOM     69  S2  SGN d 503     -18.462  55.011 175.418  0.00  0.00     0.251 S 
ATOM     70  O6S SGN d 503     -18.281  56.155 174.613  0.00  0.00    -0.572 OA
ATOM     71  O4S SGN d 503     -19.336  55.309 176.502  0.00  0.00    -0.572 OA
ATOM     72  O5S SGN d 503     -17.231  54.369 175.870  0.00  0.00    -0.572 OA
ENDBRANCH  68  69
ENDBRANCH  67  68
ENDBRANCH  62  67
BRANCH  64  73
ATOM     73  O4  IDS d 502     -22.453  52.172 172.660  0.00  0.00    -0.348 OA
BRANCH  73  74
ATOM     74  C4  IDS d 502     -23.430  53.152 172.901  0.00  0.00     0.195 C 
ATOM     75  C3  IDS d 502     -24.674  52.864 172.039  0.00  0.00     0.185 C 
ATOM     76  C2  IDS d 502     -25.406  51.612 172.533  0.00  0.00     0.231 C 
ATOM     77  C1  IDS d 502     -25.620  51.638 174.044  0.00  0.00     0.291 C 
ATOM     78  O5  IDS d 502     -24.421  51.911 174.725  0.00  0.00    -0.340 OA
ATOM     79  C5  IDS d 502     -23.810  53.138 174.380  0.00  0.00     0.257 C 
BRANCH  75  80
ATOM     80  O3  IDS d 502     -25.564  53.959 172.136  0.00  0.00    -0.390 OA
ATOM     81  H   IDS d 502     -25.305  54.643 171.499  0.00  0.00     0.210 HD
ENDBRANCH  75  80
BRANCH  76  82
ATOM     82  O2  IDS d 502     -24.597  50.508 172.227  0.00  0.00    -0.244 OA
BRANCH  82  83
ATOM     83  S   IDS d 502     -24.943  49.294 171.304  0.00  0.00     0.252 S 
ATOM     84  O3S IDS d 502     -25.294  49.883 170.038  0.00  0.00    -0.572 OA
ATOM     85  O2S IDS d 502     -26.037  48.607 171.951  0.00  0.00    -0.572 OA
ATOM     86  O1S IDS d 502     -23.763  48.479 171.213  0.00  0.00    -0.572 OA
ENDBRANCH  82  83
ENDBRANCH  76  82
BRANCH  77  87
ATOM     87  O1  IDS d 502     -26.625  52.577 174.321  0.00  0.00    -0.368 OA
ATOM     88  H   IDS d 502     -27.467  52.267 173.953  0.00  0.00     0.212 HD
ENDBRANCH  77  87
BRANCH  79  89
ATOM     89  C6  IDS d 502     -22.656  53.449 175.323  0.00  0.00     0.206 C 
ATOM     90  O61 IDS d 502     -22.026  52.567 175.854  0.00  0.00    -0.646 OA
ATOM     91  O62 IDS d 502     -22.336  54.597 175.563  0.00  0.00    -0.646 OA
ENDBRANCH  79  89
ENDBRANCH  73  74
ENDBRANCH  64  73
BRANCH  65  92
ATOM     92  N   SGN d 503     -22.220  50.879 170.128  0.00  0.00    -0.210 NA
ATOM     93  H   SGN d 503     -23.050  51.186 170.636  0.00  0.00     0.140 HD
BRANCH  92  94
ATOM     94  S1  SGN d 503     -22.399  51.341 168.578  0.00  0.00     0.156 S 
BRANCH  94  95
ATOM     95  O2S SGN d 503     -23.759  51.849 168.407  0.00  0.00    -0.296 OA
ATOM     96  H   SGN d 503     -24.260  51.714 169.227  0.00  0.00     0.231 HD
ENDBRANCH  94  95
BRANCH  94  97
ATOM     97  O1S SGN d 503     -22.154  50.160 167.772  0.00  0.00    -0.296 OA
ATOM     98  H   SGN d 503     -22.973  49.648 167.692  0.00  0.00     0.231 HD
ENDBRANCH  94  97
BRANCH  94  99
ATOM     99  O3S SGN d 503     -21.374  52.347 168.412  0.00  0.00    -0.296 OA
ATOM    100  H   SGN d 503     -20.586  52.090 168.915  0.00  0.00     0.231 HD
ENDBRANCH  94  99
ENDBRANCH  92  94
ENDBRANCH  65  92
BRANCH  66 101
ATOM    101  O3  SGN d 503     -19.856  49.299 170.741  0.00  0.00    -0.391 OA
ATOM    102  H   SGN d 503     -20.439  49.218 169.971  0.00  0.00     0.210 HD
ENDBRANCH  66 101
ENDBRANCH  60  61
ENDBRANCH   3  60
TORSDOF 40
ENDMDL
MODEL 59
REMARK VINA RESULT:      -2.5      3.386      6.360
REMARK WARNING: 32 MAX_TORS EXCEEDED!!!
REMARK  40 active torsions:
REMARK  status: ('A' for Active; 'I' for Inactive)
REMARK    1 I    between atoms: C6_1  and  C5_8 
REMARK    2 I    between atoms: C6_1  and  O6_57 
REMARK    3 I    between atoms: O4_2  and  C4_49 
REMARK    4 I    between atoms: O6_3  and  C6_7 
REMARK    5 I    between atoms: O6_3  and  S2_58 
REMARK    6 I    between atoms: S_4  and  O2_6 
REMARK    7 I    between atoms: O3_5  and  C3_81 
REMARK    8 I    between atoms: O2_6  and  C2_11 
REMARK    9 I    between atoms: C6_7  and  C5_54 
REMARK   10 I    between atoms: O4_9  and  C4_32 
REMARK   11 I    between atoms: O4_9  and  C1_39 
REMARK   12 I    between atoms: O3_12  and  C3_18 
REMARK   13 I    between atoms: N_13  and  C2_52 
REMARK   14 I    between atoms: N_13  and  S1_45 
REMARK   15 I    between atoms: O3_17  and  C3_83 
REMARK   16 I    between atoms: C4_20  and  O4_44 
REMARK   17 I    between atoms: N_21  and  C2_66 
REMARK   18 I    between atoms: N_21  and  S1_53 
REMARK   19 I    between atoms: O3_22  and  C3_65 
REMARK   20 I    between atoms: C4_23  and  O4_74 
REMARK   21 I    between atoms: C1_25  and  O1_72 
REMARK   22 I    between atoms: C2_28  and  O2_69 
REMARK   23 I    between atoms: C4_33  and  O4_61 
REMARK   24 I    between atoms: O2S_34  and  S1_45 
REMARK   25 I    between atoms: C6_37  and  C5_47 
REMARK   26 I    between atoms: O2_38  and  C2_77 
REMARK   27 I    between atoms: O2_38  and  S_50 
REMARK   28 I    between atoms: O3S_40  and  S1_53 
REMARK   29 I    between atoms: O1S_42  and  S1_45 
REMARK   30 I    between atoms: O1S_43  and  S1_53 
REMARK   31 I    between atoms: O4_44  and  C1_46 
REMARK   32 I    between atoms: S1_45  and  O3S_60 
REMARK   33 I    between atoms: C6_48  and  C5_84 
REMARK   34 I    between atoms: C6_51  and  C5_87 
REMARK   35 I    between atoms: S1_53  and  O2S_55 
REMARK   36 I    between atoms: C1_56  and  O4_74 
REMARK   37 I    between atoms: O6_57  and  S2_82 
REMARK   38 I    between atoms: O4_61  and  C1_70 
REMARK   39 I    between atoms: C3_63  and  O3_79 
REMARK   40 I    between atoms: O2_69  and  S_76 
ROOT
ATOM      1  C3  IDS d 504     -19.300  50.693 172.844  0.00  0.00     0.185 C 
ATOM      2  C4  IDS d 504     -17.906  50.085 172.846  0.00  0.00     0.195 C 
ATOM      3  C1  IDS d 504     -18.216  52.869 173.682  0.00  0.00     0.294 C 
ATOM      4  O5  IDS d 504     -16.978  52.152 173.659  0.00  0.00    -0.340 OA
ATOM      5  C2  IDS d 504     -19.399  51.931 173.817  0.00  0.00     0.231 C 
ATOM      6  C5  IDS d 504     -16.880  51.195 172.628  0.00  0.00     0.257 C 
ENDROOT
BRANCH   2   7
ATOM      7  O4  IDS d 504     -17.675  49.444 174.092  0.00  0.00    -0.348 OA
BRANCH   7   8
ATOM      8  C1  SGN d 505     -18.040  48.091 174.110  0.00  0.00     0.282 C 
ATOM      9  O5  SGN d 505     -17.111  47.325 173.396  0.00  0.00    -0.349 OA
ATOM     10  C5  SGN d 505     -15.835  47.323 173.958  0.00  0.00     0.181 C 
ATOM     11  C4  SGN d 505     -15.858  46.665 175.300  0.00  0.00     0.186 C 
ATOM     12  C3  SGN d 505     -16.765  47.544 176.210  0.00  0.00     0.173 C 
ATOM     13  C2  SGN d 505     -18.147  47.561 175.527  0.00  0.00     0.157 C 
BRANCH  10  14
ATOM     14  C6  SGN d 505     -14.949  46.618 172.982  0.00  0.00     0.227 C 
BRANCH  14  15
ATOM     15  O6  SGN d 505     -15.776  46.274 171.924  0.00  0.00    -0.254 OA
BRANCH  15  16
ATOM     16  S2  SGN d 505     -15.441  45.362 170.753  0.00  0.00     0.251 S 
ATOM     17  O5S SGN d 505     -16.700  44.757 170.394  0.00  0.00    -0.572 OA
ATOM     18  O4S SGN d 505     -14.460  44.438 171.274  0.00  0.00    -0.572 OA
ATOM     19  O6S SGN d 505     -14.909  46.210 169.694  0.00  0.00    -0.572 OA
ENDBRANCH  15  16
ENDBRANCH  14  15
ENDBRANCH  10  14
BRANCH  11  20
ATOM     20  O4  SGN d 505     -14.508  46.564 175.702  0.00  0.00    -0.348 OA
BRANCH  20  21
ATOM     21  C1  IDS d 506     -13.957  45.418 176.256  0.00  0.00     0.294 C 
ATOM     22  C2  IDS d 506     -12.501  45.706 176.647  0.00  0.00     0.231 C 
ATOM     23  C3  IDS d 506     -11.683  44.422 176.961  0.00  0.00     0.185 C 
ATOM     24  C4  IDS d 506     -12.027  43.228 176.046  0.00  0.00     0.189 C 
ATOM     25  C5  IDS d 506     -13.530  43.182 175.755  0.00  0.00     0.256 C 
ATOM     26  O5  IDS d 506     -13.962  44.412 175.275  0.00  0.00    -0.340 OA
BRANCH  22  27
ATOM     27  O2  IDS d 506     -11.835  46.367 175.589  0.00  0.00    -0.244 OA
BRANCH  27  28
ATOM     28  S   IDS d 506     -11.363  47.883 175.518  0.00  0.00     0.252 S 
ATOM     29  O1S IDS d 506      -9.966  47.824 175.216  0.00  0.00    -0.572 OA
ATOM     30  O2S IDS d 506     -12.092  48.528 174.463  0.00  0.00    -0.572 OA
ATOM     31  O3S IDS d 506     -11.641  48.437 176.826  0.00  0.00    -0.572 OA
ENDBRANCH  27  28
ENDBRANCH  22  27
BRANCH  23  32
ATOM     32  O3  IDS d 506     -11.934  44.045 178.312  0.00  0.00    -0.390 OA
ATOM     33  H   IDS d 506     -11.807  44.813 178.891  0.00  0.00     0.210 HD
ENDBRANCH  23  32
BRANCH  24  34
ATOM     34  O4  IDS d 506     -11.315  43.404 174.843  0.00  0.00    -0.390 OA
ATOM     35  H   IDS d 506     -10.395  43.638 175.042  0.00  0.00     0.210 HD
ENDBRANCH  24  34
BRANCH  25  36
ATOM     36  C6  IDS d 506     -14.009  42.082 174.825  0.00  0.00     0.206 C 
ATOM     37  O62 IDS d 506     -13.416  41.800 173.799  0.00  0.00    -0.646 OA
ATOM     38  O61 IDS d 506     -15.010  41.438 175.105  0.00  0.00    -0.646 OA
ENDBRANCH  25  36
ENDBRANCH  20  21
ENDBRANCH  11  20
BRANCH  12  39
ATOM     39  O3  SGN d 505     -16.905  46.952 177.495  0.00  0.00    -0.391 OA
ATOM     40  H   SGN d 505     -16.577  46.039 177.468  0.00  0.00     0.210 HD
ENDBRANCH  12  39
BRANCH  13  41
ATOM     41  N   SGN d 505     -19.202  48.308 176.250  0.00  0.00    -0.210 NA
ATOM     42  H   SGN d 505     -19.595  48.989 175.600  0.00  0.00     0.140 HD
BRANCH  41  43
ATOM     43  S1  SGN d 505     -20.477  47.427 176.886  0.00  0.00     0.156 S 
BRANCH  43  44
ATOM     44  O3S SGN d 505     -21.080  48.233 177.887  0.00  0.00    -0.296 OA
ATOM     45  H   SGN d 505     -20.495  48.281 178.659  0.00  0.00     0.231 HD
ENDBRANCH  43  44
BRANCH  43  46
ATOM     46  O1S SGN d 505     -21.377  47.111 175.797  0.00  0.00    -0.296 OA
ATOM     47  H   SGN d 505     -21.386  46.152 175.653  0.00  0.00     0.231 HD
ENDBRANCH  43  46
BRANCH  43  48
ATOM     48  O2S SGN d 505     -19.867  46.248 177.456  0.00  0.00    -0.296 OA
ATOM     49  H   SGN d 505     -19.640  45.626 176.748  0.00  0.00     0.231 HD
ENDBRANCH  43  48
ENDBRANCH  41  43
ENDBRANCH  13  41
ENDBRANCH   7   8
ENDBRANCH   2   7
BRANCH   1  50
ATOM     50  O3  IDS d 504     -19.572  51.110 171.512  0.00  0.00    -0.390 OA
ATOM     51  H   IDS d 504     -19.982  51.989 171.527  0.00  0.00     0.210 HD
ENDBRANCH   1  50
BRANCH   6  52
ATOM     52  C6  IDS d 504     -15.426  50.720 172.472  0.00  0.00     0.206 C 
ATOM     53  O62 IDS d 504     -15.099  49.961 171.557  0.00  0.00    -0.646 OA
ATOM     54  O61 IDS d 504     -14.561  51.069 173.265  0.00  0.00    -0.646 OA
ENDBRANCH   6  52
BRANCH   5  55
ATOM     55  O2  IDS d 504     -19.473  51.495 175.173  0.00  0.00    -0.244 OA
BRANCH  55  56
ATOM     56  S   IDS d 504     -20.751  51.313 176.012  0.00  0.00     0.252 S 
ATOM     57  O2S IDS d 504     -21.500  52.533 175.931  0.00  0.00    -0.572 OA
ATOM     58  O3S IDS d 504     -21.378  50.189 175.426  0.00  0.00    -0.572 OA
ATOM     59  O1S IDS d 504     -20.324  51.050 177.338  0.00  0.00    -0.572 OA
ENDBRANCH  55  56
ENDBRANCH   5  55
BRANCH   3  60
ATOM     60  O4  SGN d 503     -18.404  53.651 172.538  0.00  0.00    -0.348 OA
BRANCH  60  61
ATOM     61  C4  SGN d 503     -18.117  54.999 172.720  0.00  0.00     0.186 C 
ATOM     62  C5  SGN d 503     -19.025  55.827 171.794  0.00  0.00     0.181 C 
ATOM     63  O5  SGN d 503     -18.705  57.182 171.859  0.00  0.00    -0.349 OA
ATOM     64  C1  SGN d 503     -17.392  57.465 171.444  0.00  0.00     0.282 C 
ATOM     65  C2  SGN d 503     -16.396  56.730 172.353  0.00  0.00     0.157 C 
ATOM     66  C3  SGN d 503     -16.650  55.234 172.367  0.00  0.00     0.173 C 
BRANCH  62  67
ATOM     67  C6  SGN d 503     -20.488  55.766 172.140  0.00  0.00     0.227 C 
BRANCH  67  68
ATOM     68  O6  SGN d 503     -21.181  55.350 170.983  0.00  0.00    -0.254 OA
BRANCH  68  69
ATOM     69  S2  SGN d 503     -21.757  53.931 170.737  0.00  0.00     0.251 S 
ATOM     70  O6S SGN d 503     -20.777  53.305 169.938  0.00  0.00    -0.572 OA
ATOM     71  O4S SGN d 503     -21.862  53.267 171.992  0.00  0.00    -0.572 OA
ATOM     72  O5S SGN d 503     -23.059  54.102 170.099  0.00  0.00    -0.572 OA
ENDBRANCH  68  69
ENDBRANCH  67  68
ENDBRANCH  62  67
BRANCH  64  73
ATOM     73  O4  IDS d 502     -17.193  57.120 170.100  0.00  0.00    -0.348 OA
BRANCH  73  74
ATOM     74  C4  IDS d 502     -17.429  58.158 169.184  0.00  0.00     0.195 C 
ATOM     75  C3  IDS d 502     -16.109  58.897 168.889  0.00  0.00     0.185 C 
ATOM     76  C2  IDS d 502     -15.158  58.016 168.074  0.00  0.00     0.231 C 
ATOM     77  C1  IDS d 502     -15.859  57.377 166.879  0.00  0.00     0.291 C 
ATOM     78  O5  IDS d 502     -17.048  56.737 167.265  0.00  0.00    -0.340 OA
ATOM     79  C5  IDS d 502     -17.998  57.577 167.892  0.00  0.00     0.257 C 
BRANCH  75  80
ATOM     80  O3  IDS d 502     -16.392  60.056 168.130  0.00  0.00    -0.390 OA
ATOM     81  H   IDS d 502     -15.562  60.504 167.904  0.00  0.00     0.210 HD
ENDBRANCH  75  80
BRANCH  76  82
ATOM     82  O2  IDS d 502     -14.716  56.987 168.919  0.00  0.00    -0.244 OA
BRANCH  82  83
ATOM     83  S   IDS d 502     -13.484  56.045 168.717  0.00  0.00     0.252 S 
ATOM     84  O3S IDS d 502     -12.984  55.805 170.046  0.00  0.00    -0.572 OA
ATOM     85  O2S IDS d 502     -12.565  56.773 167.873  0.00  0.00    -0.572 OA
ATOM     86  O1S IDS d 502     -13.963  54.843 168.094  0.00  0.00    -0.572 OA
ENDBRANCH  82  83
ENDBRANCH  76  82
BRANCH  77  87
ATOM     87  O1  IDS d 502     -16.072  58.378 165.919  0.00  0.00    -0.368 OA
ATOM     88  H   IDS d 502     -15.980  57.999 165.031  0.00  0.00     0.212 HD
ENDBRANCH  77  87
BRANCH  79  89
ATOM     89  C6  IDS d 502     -19.326  56.853 168.064  0.00  0.00     0.206 C 
ATOM     90  O61 IDS d 502     -20.374  57.450 168.023  0.00  0.00    -0.646 OA
ATOM     91  O62 IDS d 502     -19.366  55.652 168.244  0.00  0.00    -0.646 OA
ENDBRANCH  79  89
ENDBRANCH  73  74
ENDBRANCH  64  73
BRANCH  65  92
ATOM     92  N   SGN d 503     -15.031  57.032 171.959  0.00  0.00    -0.210 NA
ATOM     93  H   SGN d 503     -15.071  57.777 171.264  0.00  0.00     0.140 HD
BRANCH  92  94
ATOM     94  S1  SGN d 503     -13.999  57.508 173.124  0.00  0.00     0.156 S 
BRANCH  94  95
ATOM     95  O2S SGN d 503     -14.632  57.268 174.420  0.00  0.00    -0.296 OA
ATOM     96  H   SGN d 503     -14.888  56.335 174.487  0.00  0.00     0.231 HD
ENDBRANCH  94  95
BRANCH  94  97
ATOM     97  O1S SGN d 503     -13.750  58.918 172.892  0.00  0.00    -0.296 OA
ATOM     98  H   SGN d 503     -12.893  59.162 173.276  0.00  0.00     0.231 HD
ENDBRANCH  94  97
BRANCH  94  99
ATOM     99  O3S SGN d 503     -12.830  56.692 172.885  0.00  0.00    -0.296 OA
ATOM    100  H   SGN d 503     -12.197  56.814 173.610  0.00  0.00     0.231 HD
ENDBRANCH  94  99
ENDBRANCH  92  94
ENDBRANCH  65  92
BRANCH  66 101
ATOM    101  O3  SGN d 503     -15.853  54.619 173.361  0.00  0.00    -0.391 OA
ATOM    102  H   SGN d 503     -15.595  53.732 173.066  0.00  0.00     0.210 HD
ENDBRANCH  66 101
ENDBRANCH  60  61
ENDBRANCH   3  60
TORSDOF 40
ENDMDL
MODEL 60
REMARK VINA RESULT:      -2.5      2.412     12.838
REMARK WARNING: 32 MAX_TORS EXCEEDED!!!
REMARK  40 active torsions:
REMARK  status: ('A' for Active; 'I' for Inactive)
REMARK    1 I    between atoms: C6_1  and  C5_8 
REMARK    2 I    between atoms: C6_1  and  O6_57 
REMARK    3 I    between atoms: O4_2  and  C4_49 
REMARK    4 I    between atoms: O6_3  and  C6_7 
REMARK    5 I    between atoms: O6_3  and  S2_58 
REMARK    6 I    between atoms: S_4  and  O2_6 
REMARK    7 I    between atoms: O3_5  and  C3_81 
REMARK    8 I    between atoms: O2_6  and  C2_11 
REMARK    9 I    between atoms: C6_7  and  C5_54 
REMARK   10 I    between atoms: O4_9  and  C4_32 
REMARK   11 I    between atoms: O4_9  and  C1_39 
REMARK   12 I    between atoms: O3_12  and  C3_18 
REMARK   13 I    between atoms: N_13  and  C2_52 
REMARK   14 I    between atoms: N_13  and  S1_45 
REMARK   15 I    between atoms: O3_17  and  C3_83 
REMARK   16 I    between atoms: C4_20  and  O4_44 
REMARK   17 I    between atoms: N_21  and  C2_66 
REMARK   18 I    between atoms: N_21  and  S1_53 
REMARK   19 I    between atoms: O3_22  and  C3_65 
REMARK   20 I    between atoms: C4_23  and  O4_74 
REMARK   21 I    between atoms: C1_25  and  O1_72 
REMARK   22 I    between atoms: C2_28  and  O2_69 
REMARK   23 I    between atoms: C4_33  and  O4_61 
REMARK   24 I    between atoms: O2S_34  and  S1_45 
REMARK   25 I    between atoms: C6_37  and  C5_47 
REMARK   26 I    between atoms: O2_38  and  C2_77 
REMARK   27 I    between atoms: O2_38  and  S_50 
REMARK   28 I    between atoms: O3S_40  and  S1_53 
REMARK   29 I    between atoms: O1S_42  and  S1_45 
REMARK   30 I    between atoms: O1S_43  and  S1_53 
REMARK   31 I    between atoms: O4_44  and  C1_46 
REMARK   32 I    between atoms: S1_45  and  O3S_60 
REMARK   33 I    between atoms: C6_48  and  C5_84 
REMARK   34 I    between atoms: C6_51  and  C5_87 
REMARK   35 I    between atoms: S1_53  and  O2S_55 
REMARK   36 I    between atoms: C1_56  and  O4_74 
REMARK   37 I    between atoms: O6_57  and  S2_82 
REMARK   38 I    between atoms: O4_61  and  C1_70 
REMARK   39 I    between atoms: C3_63  and  O3_79 
REMARK   40 I    between atoms: O2_69  and  S_76 
ROOT
ATOM      1  C3  IDS d 504     -15.229  48.952 176.173  0.00  0.00     0.185 C 
ATOM      2  C4  IDS d 504     -15.279  50.438 175.856  0.00  0.00     0.195 C 
ATOM      3  C1  IDS d 504     -14.576  48.575 173.715  0.00  0.00     0.294 C 
ATOM      4  O5  IDS d 504     -14.692  49.994 173.564  0.00  0.00    -0.340 OA
ATOM      5  C2  IDS d 504     -15.408  48.071 174.877  0.00  0.00     0.231 C 
ATOM      6  C5  IDS d 504     -14.318  50.731 174.705  0.00  0.00     0.257 C 
ENDROOT
BRANCH   2   7
ATOM      7  O4  IDS d 504     -16.603  50.796 175.490  0.00  0.00    -0.348 OA
BRANCH   7   8
ATOM      8  C1  SGN d 505     -17.402  51.194 176.571  0.00  0.00     0.282 C 
ATOM      9  O5  SGN d 505     -17.371  52.586 176.713  0.00  0.00    -0.349 OA
ATOM     10  C5  SGN d 505     -17.924  53.274 175.633  0.00  0.00     0.181 C 
ATOM     11  C4  SGN d 505     -19.384  52.975 175.518  0.00  0.00     0.186 C 
ATOM     12  C3  SGN d 505     -19.504  51.453 175.212  0.00  0.00     0.173 C 
ATOM     13  C2  SGN d 505     -18.837  50.736 176.402  0.00  0.00     0.157 C 
BRANCH  10  14
ATOM     14  C6  SGN d 505     -17.646  54.722 175.871  0.00  0.00     0.227 C 
BRANCH  14  15
ATOM     15  O6  SGN d 505     -16.342  54.917 175.444  0.00  0.00    -0.254 OA
BRANCH  15  16
ATOM     16  S2  SGN d 505     -15.421  56.078 175.792  0.00  0.00     0.251 S 
ATOM     17  O5S SGN d 505     -14.916  55.757 177.104  0.00  0.00    -0.572 OA
ATOM     18  O4S SGN d 505     -16.270  57.246 175.746  0.00  0.00    -0.572 OA
ATOM     19  O6S SGN d 505     -14.372  56.104 174.782  0.00  0.00    -0.572 OA
ENDBRANCH  15  16
ENDBRANCH  14  15
ENDBRANCH  10  14
BRANCH  11  20
ATOM     20  O4  SGN d 505     -19.876  53.838 174.515  0.00  0.00    -0.348 OA
BRANCH  20  21
ATOM     21  C1  IDS d 506     -21.156  54.371 174.522  0.00  0.00     0.294 C 
ATOM     22  C2  IDS d 506     -21.384  55.135 173.210  0.00  0.00     0.231 C 
ATOM     23  C3  IDS d 506     -22.638  56.051 173.241  0.00  0.00     0.185 C 
ATOM     24  C4  IDS d 506     -22.867  56.745 174.601  0.00  0.00     0.189 C 
ATOM     25  C5  IDS d 506     -22.522  55.800 175.757  0.00  0.00     0.256 C 
ATOM     26  O5  IDS d 506     -21.243  55.284 175.587  0.00  0.00    -0.340 OA
BRANCH  22  27
ATOM     27  O2  IDS d 506     -20.275  55.969 172.933  0.00  0.00    -0.244 OA
BRANCH  27  28
ATOM     28  S   IDS d 506     -19.407  56.043 171.605  0.00  0.00     0.252 S 
ATOM     29  O1S IDS d 506     -18.400  57.023 171.874  0.00  0.00    -0.572 OA
ATOM     30  O2S IDS d 506     -18.822  54.751 171.381  0.00  0.00    -0.572 OA
ATOM     31  O3S IDS d 506     -20.327  56.443 170.562  0.00  0.00    -0.572 OA
ENDBRANCH  27  28
ENDBRANCH  22  27
BRANCH  23  32
ATOM     32  O3  IDS d 506     -23.784  55.260 172.937  0.00  0.00    -0.390 OA
ATOM     33  H   IDS d 506     -23.514  54.337 172.805  0.00  0.00     0.210 HD
ENDBRANCH  23  32
BRANCH  24  34
ATOM     34  O4  IDS d 506     -22.025  57.873 174.641  0.00  0.00    -0.390 OA
ATOM     35  H   IDS d 506     -22.055  58.330 173.786  0.00  0.00     0.210 HD
ENDBRANCH  24  34
BRANCH  25  36
ATOM     36  C6  IDS d 506     -22.655  56.366 177.158  0.00  0.00     0.206 C 
ATOM     37  O62 IDS d 506     -23.702  56.315 177.779  0.00  0.00    -0.646 OA
ATOM     38  O61 IDS d 506     -21.688  56.879 177.705  0.00  0.00    -0.646 OA
ENDBRANCH  25  36
ENDBRANCH  20  21
ENDBRANCH  11  20
BRANCH  12  39
ATOM     39  O3  SGN d 505     -20.869  51.062 175.157  0.00  0.00    -0.391 OA
ATOM     40  H   SGN d 505     -21.430  51.800 175.443  0.00  0.00     0.210 HD
ENDBRANCH  12  39
BRANCH  13  41
ATOM     41  N   SGN d 505     -18.875  49.256 176.352  0.00  0.00    -0.210 NA
ATOM     42  H   SGN d 505     -18.064  48.911 176.866  0.00  0.00     0.140 HD
BRANCH  41  43
ATOM     43  S1  SGN d 505     -20.228  48.495 176.983  0.00  0.00     0.156 S 
BRANCH  43  44
ATOM     44  O3S SGN d 505     -19.762  47.426 177.794  0.00  0.00    -0.296 OA
ATOM     45  H   SGN d 505     -18.843  47.595 178.053  0.00  0.00     0.231 HD
ENDBRANCH  43  44
BRANCH  43  46
ATOM     46  O1S SGN d 505     -20.980  49.483 177.727  0.00  0.00    -0.296 OA
ATOM     47  H   SGN d 505     -20.535  49.659 178.571  0.00  0.00     0.231 HD
ENDBRANCH  43  46
BRANCH  43  48
ATOM     48  O2S SGN d 505     -20.950  48.005 175.832  0.00  0.00    -0.296 OA
ATOM     49  H   SGN d 505     -20.381  48.052 175.048  0.00  0.00     0.231 HD
ENDBRANCH  43  48
ENDBRANCH  41  43
ENDBRANCH  13  41
ENDBRANCH   7   8
ENDBRANCH   2   7
BRANCH   1  50
ATOM     50  O3  IDS d 504     -13.958  48.691 176.755  0.00  0.00    -0.390 OA
ATOM     51  H   IDS d 504     -13.376  48.286 176.093  0.00  0.00     0.210 HD
ENDBRANCH   1  50
BRANCH   6  52
ATOM     52  C6  IDS d 504     -14.156  52.220 174.353  0.00  0.00     0.206 C 
ATOM     53  O62 IDS d 504     -14.799  52.731 173.434  0.00  0.00    -0.646 OA
ATOM     54  O61 IDS d 504     -13.369  52.929 174.967  0.00  0.00    -0.646 OA
ENDBRANCH   6  52
BRANCH   5  55
ATOM     55  O2  IDS d 504     -16.776  48.049 174.474  0.00  0.00    -0.244 OA
BRANCH  55  56
ATOM     56  S   IDS d 504     -17.681  46.810 174.358  0.00  0.00     0.252 S 
ATOM     57  O2S IDS d 504     -18.943  47.243 173.833  0.00  0.00    -0.572 OA
ATOM     58  O3S IDS d 504     -16.951  45.941 173.512  0.00  0.00    -0.572 OA
ATOM     59  O1S IDS d 504     -17.812  46.286 175.668  0.00  0.00    -0.572 OA
ENDBRANCH  55  56
ENDBRANCH   5  55
BRANCH   3  60
ATOM     60  O4  SGN d 503     -13.254  48.163 173.909  0.00  0.00    -0.348 OA
BRANCH  60  61
ATOM     61  C4  SGN d 503     -12.443  48.315 172.790  0.00  0.00     0.186 C 
ATOM     62  C5  SGN d 503     -12.491  47.017 171.965  0.00  0.00     0.181 C 
ATOM     63  O5  SGN d 503     -11.612  47.077 170.886  0.00  0.00    -0.349 OA
ATOM     64  C1  SGN d 503     -10.268  47.225 171.269  0.00  0.00     0.282 C 
ATOM     65  C2  SGN d 503     -10.098  48.535 172.052  0.00  0.00     0.157 C 
ATOM     66  C3  SGN d 503     -11.016  48.588 173.259  0.00  0.00     0.173 C 
BRANCH  62  67
ATOM     67  C6  SGN d 503     -13.831  46.722 171.347  0.00  0.00     0.227 C 
BRANCH  67  68
ATOM     68  O6  SGN d 503     -14.000  47.603 170.259  0.00  0.00    -0.254 OA
BRANCH  68  69
ATOM     69  S2  SGN d 503     -14.605  47.229 168.879  0.00  0.00     0.251 S 
ATOM     70  O6S SGN d 503     -15.952  46.930 169.174  0.00  0.00    -0.572 OA
ATOM     71  O4S SGN d 503     -14.531  48.371 168.034  0.00  0.00    -0.572 OA
ATOM     72  O5S SGN d 503     -13.822  46.112 168.358  0.00  0.00    -0.572 OA
ENDBRANCH  68  69
ENDBRANCH  67  68
ENDBRANCH  62  67
BRANCH  64  73
ATOM     73  O4  IDS d 502      -9.826  46.129 172.024  0.00  0.00    -0.348 OA
BRANCH  73  74
ATOM     74  C4  IDS d 502     -10.051  44.877 171.430  0.00  0.00     0.195 C 
ATOM     75  C3  IDS d 502      -9.057  44.667 170.272  0.00  0.00     0.185 C 
ATOM     76  C2  IDS d 502      -7.633  44.474 170.801  0.00  0.00     0.231 C 
ATOM     77  C1  IDS d 502      -7.580  43.452 171.933  0.00  0.00     0.291 C 
ATOM     78  O5  IDS d 502      -8.529  43.741 172.928  0.00  0.00    -0.340 OA
ATOM     79  C5  IDS d 502      -9.869  43.779 172.476  0.00  0.00     0.257 C 
BRANCH  75  80
ATOM     80  O3  IDS d 502      -9.422  43.501 169.559  0.00  0.00    -0.390 OA
ATOM     81  H   IDS d 502      -9.565  43.725 168.627  0.00  0.00     0.210 HD
ENDBRANCH  75  80
BRANCH  76  82
ATOM     82  O2  IDS d 502      -7.207  45.709 171.311  0.00  0.00    -0.244 OA
BRANCH  82  83
ATOM     83  S   IDS d 502      -6.297  46.772 170.610  0.00  0.00     0.252 S 
ATOM     84  O3S IDS d 502      -7.177  47.473 169.711  0.00  0.00    -0.572 OA
ATOM     85  O2S IDS d 502      -5.258  46.023 169.942  0.00  0.00    -0.572 OA
ATOM     86  O1S IDS d 502      -5.777  47.631 171.637  0.00  0.00    -0.572 OA
ENDBRANCH  82  83
ENDBRANCH  76  82
BRANCH  77  87
ATOM     87  O1  IDS d 502      -7.757  42.178 171.372  0.00  0.00    -0.368 OA
ATOM     88  H   IDS d 502      -7.431  42.179 170.458  0.00  0.00     0.212 HD
ENDBRANCH  77  87
BRANCH  79  89
ATOM     89  C6  IDS d 502     -10.831  43.870 173.652  0.00  0.00     0.206 C 
ATOM     90  O61 IDS d 502     -12.024  43.777 173.494  0.00  0.00    -0.646 OA
ATOM     91  O62 IDS d 502     -10.421  44.035 174.785  0.00  0.00    -0.646 OA
ENDBRANCH  79  89
ENDBRANCH  73  74
ENDBRANCH  64  73
BRANCH  65  92
ATOM     92  N   SGN d 503      -8.710  48.723 172.434  0.00  0.00    -0.210 NA
ATOM     93  H   SGN d 503      -8.167  47.984 171.986  0.00  0.00     0.140 HD
BRANCH  92  94
ATOM     94  S1  SGN d 503      -8.008  50.141 172.051  0.00  0.00     0.156 S 
BRANCH  94  95
ATOM     95  O2S SGN d 503      -8.962  51.212 172.336  0.00  0.00    -0.296 OA
ATOM     96  H   SGN d 503      -9.292  51.580 171.501  0.00  0.00     0.231 HD
ENDBRANCH  94  95
BRANCH  94  97
ATOM     97  O1S SGN d 503      -7.681  50.063 170.640  0.00  0.00    -0.296 OA
ATOM     98  H   SGN d 503      -8.200  49.355 170.227  0.00  0.00     0.231 HD
ENDBRANCH  94  97
BRANCH  94  99
ATOM     99  O3S SGN d 503      -6.832  50.166 172.892  0.00  0.00    -0.296 OA
ATOM    100  H   SGN d 503      -6.510  49.261 173.022  0.00  0.00     0.231 HD
ENDBRANCH  94  99
ENDBRANCH  92  94
ENDBRANCH  65  92
BRANCH  66 101
ATOM    101  O3  SGN d 503     -10.981  49.880 173.834  0.00  0.00    -0.391 OA
ATOM    102  H   SGN d 503     -10.084  50.241 173.764  0.00  0.00     0.210 HD
ENDBRANCH  66 101
ENDBRANCH  60  61
ENDBRANCH   3  60
TORSDOF 40
ENDMDL
MODEL 61
REMARK VINA RESULT:      -2.4      1.318      2.084
REMARK WARNING: 32 MAX_TORS EXCEEDED!!!
REMARK  40 active torsions:
REMARK  status: ('A' for Active; 'I' for Inactive)
REMARK    1 I    between atoms: C6_1  and  C5_8 
REMARK    2 I    between atoms: C6_1  and  O6_57 
REMARK    3 I    between atoms: O4_2  and  C4_49 
REMARK    4 I    between atoms: O6_3  and  C6_7 
REMARK    5 I    between atoms: O6_3  and  S2_58 
REMARK    6 I    between atoms: S_4  and  O2_6 
REMARK    7 I    between atoms: O3_5  and  C3_81 
REMARK    8 I    between atoms: O2_6  and  C2_11 
REMARK    9 I    between atoms: C6_7  and  C5_54 
REMARK   10 I    between atoms: O4_9  and  C4_32 
REMARK   11 I    between atoms: O4_9  and  C1_39 
REMARK   12 I    between atoms: O3_12  and  C3_18 
REMARK   13 I    between atoms: N_13  and  C2_52 
REMARK   14 I    between atoms: N_13  and  S1_45 
REMARK   15 I    between atoms: O3_17  and  C3_83 
REMARK   16 I    between atoms: C4_20  and  O4_44 
REMARK   17 I    between atoms: N_21  and  C2_66 
REMARK   18 I    between atoms: N_21  and  S1_53 
REMARK   19 I    between atoms: O3_22  and  C3_65 
REMARK   20 I    between atoms: C4_23  and  O4_74 
REMARK   21 I    between atoms: C1_25  and  O1_72 
REMARK   22 I    between atoms: C2_28  and  O2_69 
REMARK   23 I    between atoms: C4_33  and  O4_61 
REMARK   24 I    between atoms: O2S_34  and  S1_45 
REMARK   25 I    between atoms: C6_37  and  C5_47 
REMARK   26 I    between atoms: O2_38  and  C2_77 
REMARK   27 I    between atoms: O2_38  and  S_50 
REMARK   28 I    between atoms: O3S_40  and  S1_53 
REMARK   29 I    between atoms: O1S_42  and  S1_45 
REMARK   30 I    between atoms: O1S_43  and  S1_53 
REMARK   31 I    between atoms: O4_44  and  C1_46 
REMARK   32 I    between atoms: S1_45  and  O3S_60 
REMARK   33 I    between atoms: C6_48  and  C5_84 
REMARK   34 I    between atoms: C6_51  and  C5_87 
REMARK   35 I    between atoms: S1_53  and  O2S_55 
REMARK   36 I    between atoms: C1_56  and  O4_74 
REMARK   37 I    between atoms: O6_57  and  S2_82 
REMARK   38 I    between atoms: O4_61  and  C1_70 
REMARK   39 I    between atoms: C3_63  and  O3_79 
REMARK   40 I    between atoms: O2_69  and  S_76 
ROOT
ATOM      1  C3  IDS d 504     -16.713  49.825 174.996  0.00  0.00     0.185 C 
ATOM      2  C4  IDS d 504     -15.883  49.741 173.725  0.00  0.00     0.195 C 
ATOM      3  C1  IDS d 504     -16.437  52.378 174.860  0.00  0.00     0.294 C 
ATOM      4  O5  IDS d 504     -15.650  52.137 173.689  0.00  0.00    -0.340 OA
ATOM      5  C2  IDS d 504     -16.453  51.171 175.776  0.00  0.00     0.231 C 
ATOM      6  C5  IDS d 504     -16.070  51.029 172.925  0.00  0.00     0.257 C 
ENDROOT
BRANCH   2   7
ATOM      7  O4  IDS d 504     -14.515  49.573 174.067  0.00  0.00    -0.348 OA
BRANCH   7   8
ATOM      8  C1  SGN d 505     -14.180  48.261 174.432  0.00  0.00     0.282 C 
ATOM      9  O5  SGN d 505     -14.041  47.458 173.293  0.00  0.00    -0.349 OA
ATOM     10  C5  SGN d 505     -12.990  47.841 172.461  0.00  0.00     0.181 C 
ATOM     11  C4  SGN d 505     -11.682  47.667 173.161  0.00  0.00     0.186 C 
ATOM     12  C3  SGN d 505     -11.693  48.643 174.374  0.00  0.00     0.173 C 
ATOM     13  C2  SGN d 505     -12.896  48.218 175.238  0.00  0.00     0.157 C 
BRANCH  10  14
ATOM     14  C6  SGN d 505     -13.104  47.002 171.230  0.00  0.00     0.227 C 
BRANCH  14  15
ATOM     15  O6  SGN d 505     -13.758  45.848 171.636  0.00  0.00    -0.254 OA
BRANCH  15  16
ATOM     16  S2  SGN d 505     -13.401  44.413 171.278  0.00  0.00     0.251 S 
ATOM     17  O5S SGN d 505     -12.800  43.880 172.475  0.00  0.00    -0.572 OA
ATOM     18  O4S SGN d 505     -12.500  44.527 170.154  0.00  0.00    -0.572 OA
ATOM     19  O6S SGN d 505     -14.647  43.741 170.933  0.00  0.00    -0.572 OA
ENDBRANCH  15  16
ENDBRANCH  14  15
ENDBRANCH  10  14
BRANCH  11  20
ATOM     20  O4  SGN d 505     -10.688  47.916 172.189  0.00  0.00    -0.348 OA
BRANCH  20  21
ATOM     21  C1  IDS d 506      -9.550  47.138 172.039  0.00  0.00     0.294 C 
ATOM     22  C2  IDS d 506      -8.824  47.563 170.754  0.00  0.00     0.231 C 
ATOM     23  C3  IDS d 506      -7.734  46.553 170.301  0.00  0.00     0.185 C 
ATOM     24  C4  IDS d 506      -8.123  45.076 170.528  0.00  0.00     0.189 C 
ATOM     25  C5  IDS d 506      -8.883  44.913 171.849  0.00  0.00     0.256 C 
ATOM     26  O5  IDS d 506      -9.952  45.799 171.897  0.00  0.00    -0.340 OA
BRANCH  22  27
ATOM     27  O2  IDS d 506      -9.746  47.676 169.688  0.00  0.00    -0.244 OA
BRANCH  27  28
ATOM     28  S   IDS d 506      -9.475  48.162 168.200  0.00  0.00     0.252 S 
ATOM     29  O1S IDS d 506      -8.593  49.281 168.329  0.00  0.00    -0.572 OA
ATOM     30  O2S IDS d 506      -8.844  47.087 167.488  0.00  0.00    -0.572 OA
ATOM     31  O3S IDS d 506     -10.772  48.517 167.666  0.00  0.00    -0.572 OA
ENDBRANCH  27  28
ENDBRANCH  22  27
BRANCH  23  32
ATOM     32  O3  IDS d 506      -6.537  46.823 171.026  0.00  0.00    -0.390 OA
ATOM     33  H   IDS d 506      -6.760  47.210 171.887  0.00  0.00     0.210 HD
ENDBRANCH  23  32
BRANCH  24  34
ATOM     34  O4  IDS d 506      -8.947  44.691 169.454  0.00  0.00    -0.390 OA
ATOM     35  H   IDS d 506      -8.456  44.094 168.867  0.00  0.00     0.210 HD
ENDBRANCH  24  34
BRANCH  25  36
ATOM     36  C6  IDS d 506      -9.372  43.515 172.182  0.00  0.00     0.206 C 
ATOM     37  O62 IDS d 506      -9.665  42.709 171.316  0.00  0.00    -0.646 OA
ATOM     38  O61 IDS d 506      -9.467  43.163 173.349  0.00  0.00    -0.646 OA
ENDBRANCH  25  36
ENDBRANCH  20  21
ENDBRANCH  11  20
BRANCH  12  39
ATOM     39  O3  SGN d 505     -10.509  48.494 175.146  0.00  0.00    -0.391 OA
ATOM     40  H   SGN d 505      -9.981  47.760 174.791  0.00  0.00     0.210 HD
ENDBRANCH  12  39
BRANCH  13  41
ATOM     41  N   SGN d 505     -13.080  48.987 176.491  0.00  0.00    -0.210 NA
ATOM     42  H   SGN d 505     -13.727  49.750 176.290  0.00  0.00     0.140 HD
BRANCH  41  43
ATOM     43  S1  SGN d 505     -13.676  48.164 177.824  0.00  0.00     0.156 S 
BRANCH  43  44
ATOM     44  O3S SGN d 505     -15.092  48.206 177.738  0.00  0.00    -0.296 OA
ATOM     45  H   SGN d 505     -15.432  48.897 178.328  0.00  0.00     0.231 HD
ENDBRANCH  43  44
BRANCH  43  46
ATOM     46  O1S SGN d 505     -13.145  46.818 177.780  0.00  0.00    -0.296 OA
ATOM     47  H   SGN d 505     -13.282  46.446 176.895  0.00  0.00     0.231 HD
ENDBRANCH  43  46
BRANCH  43  48
ATOM     48  O2S SGN d 505     -13.196  48.909 178.965  0.00  0.00    -0.296 OA
ATOM     49  H   SGN d 505     -12.528  49.550 178.676  0.00  0.00     0.231 HD
ENDBRANCH  43  48
ENDBRANCH  41  43
ENDBRANCH  13  41
ENDBRANCH   7   8
ENDBRANCH   2   7
BRANCH   1  50
ATOM     50  O3  IDS d 504     -18.079  49.755 174.609  0.00  0.00    -0.390 OA
ATOM     51  H   IDS d 504     -18.149  49.306 173.752  0.00  0.00     0.210 HD
ENDBRANCH   1  50
BRANCH   6  52
ATOM     52  C6  IDS d 504     -15.396  51.043 171.543  0.00  0.00     0.206 C 
ATOM     53  O62 IDS d 504     -15.034  49.997 171.000  0.00  0.00    -0.646 OA
ATOM     54  O61 IDS d 504     -15.186  52.096 170.955  0.00  0.00    -0.646 OA
ENDBRANCH   6  52
BRANCH   5  55
ATOM     55  O2  IDS d 504     -15.205  51.115 176.465  0.00  0.00    -0.244 OA
BRANCH  55  56
ATOM     56  S   IDS d 504     -14.846  51.834 177.778  0.00  0.00     0.252 S 
ATOM     57  O2S IDS d 504     -15.373  53.166 177.701  0.00  0.00    -0.572 OA
ATOM     58  O3S IDS d 504     -15.431  51.019 178.776  0.00  0.00    -0.572 OA
ATOM     59  O1S IDS d 504     -13.431  51.837 177.859  0.00  0.00    -0.572 OA
ENDBRANCH  55  56
ENDBRANCH   5  55
BRANCH   3  60
ATOM     60  O4  SGN d 503     -17.759  52.716 174.556  0.00  0.00    -0.348 OA
BRANCH  60  61
ATOM     61  C4  SGN d 503     -17.906  53.981 173.996  0.00  0.00     0.186 C 
ATOM     62  C5  SGN d 503     -18.626  54.888 175.009  0.00  0.00     0.181 C 
ATOM     63  O5  SGN d 503     -18.893  56.140 174.458  0.00  0.00    -0.349 OA
ATOM     64  C1  SGN d 503     -19.741  56.087 173.338  0.00  0.00     0.282 C 
ATOM     65  C2  SGN d 503     -19.081  55.248 172.233  0.00  0.00     0.157 C 
ATOM     66  C3  SGN d 503     -18.737  53.853 172.721  0.00  0.00     0.173 C 
BRANCH  62  67
ATOM     67  C6  SGN d 503     -17.833  55.184 176.253  0.00  0.00     0.227 C 
BRANCH  67  68
ATOM     68  O6  SGN d 503     -17.132  56.389 176.034  0.00  0.00    -0.254 OA
BRANCH  68  69
ATOM     69  S2  SGN d 503     -15.600  56.518 175.826  0.00  0.00     0.251 S 
ATOM     70  O6S SGN d 503     -15.423  57.873 175.473  0.00  0.00    -0.572 OA
ATOM     71  O4S SGN d 503     -14.956  56.248 177.066  0.00  0.00    -0.572 OA
ATOM     72  O5S SGN d 503     -15.226  55.555 174.795  0.00  0.00    -0.572 OA
ENDBRANCH  68  69
ENDBRANCH  67  68
ENDBRANCH  62  67
BRANCH  64  73
ATOM     73  O4  IDS d 502     -21.001  55.572 173.672  0.00  0.00    -0.348 OA
BRANCH  73  74
ATOM     74  C4  IDS d 502     -21.686  56.291 174.665  0.00  0.00     0.195 C 
ATOM     75  C3  IDS d 502     -21.705  57.787 174.298  0.00  0.00     0.185 C 
ATOM     76  C2  IDS d 502     -22.612  58.044 173.091  0.00  0.00     0.231 C 
ATOM     77  C1  IDS d 502     -23.970  57.368 173.246  0.00  0.00     0.291 C 
ATOM     78  O5  IDS d 502     -23.830  56.010 173.582  0.00  0.00    -0.340 OA
ATOM     79  C5  IDS d 502     -23.116  55.766 174.778  0.00  0.00     0.257 C 
BRANCH  75  80
ATOM     80  O3  IDS d 502     -22.215  58.522 175.394  0.00  0.00    -0.390 OA
ATOM     81  H   IDS d 502     -22.340  59.448 175.132  0.00  0.00     0.210 HD
ENDBRANCH  75  80
BRANCH  76  82
ATOM     82  O2  IDS d 502     -21.977  57.493 171.969  0.00  0.00    -0.244 OA
BRANCH  82  83
ATOM     83  S   IDS d 502     -21.501  58.236 170.677  0.00  0.00     0.252 S 
ATOM     84  O3S IDS d 502     -22.259  59.460 170.656  0.00  0.00    -0.572 OA
ATOM     85  O2S IDS d 502     -21.800  57.347 169.578  0.00  0.00    -0.572 OA
ATOM     86  O1S IDS d 502     -20.092  58.475 170.818  0.00  0.00    -0.572 OA
ENDBRANCH  82  83
ENDBRANCH  76  82
BRANCH  77  87
ATOM     87  O1  IDS d 502     -24.705  58.087 174.201  0.00  0.00    -0.368 OA
ATOM     88  H   IDS d 502     -24.170  58.199 175.003  0.00  0.00     0.212 HD
ENDBRANCH  77  87
BRANCH  79  89
ATOM     89  C6  IDS d 502     -23.213  54.300 175.174  0.00  0.00     0.206 C 
ATOM     90  O61 IDS d 502     -23.397  53.971 176.320  0.00  0.00    -0.646 OA
ATOM     91  O62 IDS d 502     -23.112  53.419 174.342  0.00  0.00    -0.646 OA
ENDBRANCH  79  89
ENDBRANCH  73  74
ENDBRANCH  64  73
BRANCH  65  92
ATOM     92  N   SGN d 503     -19.928  55.202 171.055  0.00  0.00    -0.210 NA
ATOM     93  H   SGN d 503     -19.326  55.023 170.252  0.00  0.00     0.140 HD
BRANCH  92  94
ATOM     94  S1  SGN d 503     -21.120  54.094 171.026  0.00  0.00     0.156 S 
BRANCH  94  95
ATOM     95  O2S SGN d 503     -20.924  53.184 172.153  0.00  0.00    -0.296 OA
ATOM     96  H   SGN d 503     -21.637  53.313 172.799  0.00  0.00     0.231 HD
ENDBRANCH  94  95
BRANCH  94  97
ATOM     97  O1S SGN d 503     -21.007  53.413 169.750  0.00  0.00    -0.296 OA
ATOM     98  H   SGN d 503     -20.388  52.671 169.834  0.00  0.00     0.231 HD
ENDBRANCH  94  97
BRANCH  94  99
ATOM     99  O3S SGN d 503     -22.320  54.895 171.121  0.00  0.00    -0.296 OA
ATOM    100  H   SGN d 503     -22.088  55.833 171.050  0.00  0.00     0.231 HD
ENDBRANCH  94  99
ENDBRANCH  92  94
ENDBRANCH  65  92
BRANCH  66 101
ATOM    101  O3  SGN d 503     -17.954  53.183 171.751  0.00  0.00    -0.391 OA
ATOM    102  H   SGN d 503     -17.518  52.419 172.159  0.00  0.00     0.210 HD
ENDBRANCH  66 101
ENDBRANCH  60  61
ENDBRANCH   3  60
TORSDOF 40
ENDMDL
MODEL 62
REMARK VINA RESULT:      -2.4      2.870     13.061
REMARK WARNING: 32 MAX_TORS EXCEEDED!!!
REMARK  40 active torsions:
REMARK  status: ('A' for Active; 'I' for Inactive)
REMARK    1 I    between atoms: C6_1  and  C5_8 
REMARK    2 I    between atoms: C6_1  and  O6_57 
REMARK    3 I    between atoms: O4_2  and  C4_49 
REMARK    4 I    between atoms: O6_3  and  C6_7 
REMARK    5 I    between atoms: O6_3  and  S2_58 
REMARK    6 I    between atoms: S_4  and  O2_6 
REMARK    7 I    between atoms: O3_5  and  C3_81 
REMARK    8 I    between atoms: O2_6  and  C2_11 
REMARK    9 I    between atoms: C6_7  and  C5_54 
REMARK   10 I    between atoms: O4_9  and  C4_32 
REMARK   11 I    between atoms: O4_9  and  C1_39 
REMARK   12 I    between atoms: O3_12  and  C3_18 
REMARK   13 I    between atoms: N_13  and  C2_52 
REMARK   14 I    between atoms: N_13  and  S1_45 
REMARK   15 I    between atoms: O3_17  and  C3_83 
REMARK   16 I    between atoms: C4_20  and  O4_44 
REMARK   17 I    between atoms: N_21  and  C2_66 
REMARK   18 I    between atoms: N_21  and  S1_53 
REMARK   19 I    between atoms: O3_22  and  C3_65 
REMARK   20 I    between atoms: C4_23  and  O4_74 
REMARK   21 I    between atoms: C1_25  and  O1_72 
REMARK   22 I    between atoms: C2_28  and  O2_69 
REMARK   23 I    between atoms: C4_33  and  O4_61 
REMARK   24 I    between atoms: O2S_34  and  S1_45 
REMARK   25 I    between atoms: C6_37  and  C5_47 
REMARK   26 I    between atoms: O2_38  and  C2_77 
REMARK   27 I    between atoms: O2_38  and  S_50 
REMARK   28 I    between atoms: O3S_40  and  S1_53 
REMARK   29 I    between atoms: O1S_42  and  S1_45 
REMARK   30 I    between atoms: O1S_43  and  S1_53 
REMARK   31 I    between atoms: O4_44  and  C1_46 
REMARK   32 I    between atoms: S1_45  and  O3S_60 
REMARK   33 I    between atoms: C6_48  and  C5_84 
REMARK   34 I    between atoms: C6_51  and  C5_87 
REMARK   35 I    between atoms: S1_53  and  O2S_55 
REMARK   36 I    between atoms: C1_56  and  O4_74 
REMARK   37 I    between atoms: O6_57  and  S2_82 
REMARK   38 I    between atoms: O4_61  and  C1_70 
REMARK   39 I    between atoms: C3_63  and  O3_79 
REMARK   40 I    between atoms: O2_69  and  S_76 
ROOT
ATOM      1  C3  IDS d 504     -16.266  48.599 174.377  0.00  0.00     0.185 C 
ATOM      2  C4  IDS d 504     -15.993  50.073 174.636  0.00  0.00     0.195 C 
ATOM      3  C1  IDS d 504     -14.316  48.660 172.702  0.00  0.00     0.294 C 
ATOM      4  O5  IDS d 504     -14.200  50.048 173.029  0.00  0.00    -0.340 OA
ATOM      5  C2  IDS d 504     -15.714  48.140 172.973  0.00  0.00     0.231 C 
ATOM      6  C5  IDS d 504     -14.517  50.357 174.368  0.00  0.00     0.257 C 
ENDROOT
BRANCH   2   7
ATOM      7  O4  IDS d 504     -16.806  50.859 173.777  0.00  0.00    -0.348 OA
BRANCH   7   8
ATOM      8  C1  SGN d 505     -18.016  51.265 174.357  0.00  0.00     0.282 C 
ATOM      9  O5  SGN d 505     -17.812  52.377 175.182  0.00  0.00    -0.349 OA
ATOM     10  C5  SGN d 505     -17.385  53.514 174.496  0.00  0.00     0.181 C 
ATOM     11  C4  SGN d 505     -18.444  53.980 173.551  0.00  0.00     0.186 C 
ATOM     12  C3  SGN d 505     -18.633  52.847 172.501  0.00  0.00     0.173 C 
ATOM     13  C2  SGN d 505     -19.054  51.601 173.304  0.00  0.00     0.157 C 
BRANCH  10  14
ATOM     14  C6  SGN d 505     -17.051  54.531 175.539  0.00  0.00     0.227 C 
BRANCH  14  15
ATOM     15  O6  SGN d 505     -15.901  55.157 175.080  0.00  0.00    -0.254 OA
BRANCH  15  16
ATOM     16  S2  SGN d 505     -15.185  56.344 175.708  0.00  0.00     0.251 S 
ATOM     17  O5S SGN d 505     -14.977  55.956 177.081  0.00  0.00    -0.572 OA
ATOM     18  O4S SGN d 505     -16.091  57.455 175.530  0.00  0.00    -0.572 OA
ATOM     19  O6S SGN d 505     -13.934  56.516 174.981  0.00  0.00    -0.572 OA
ENDBRANCH  15  16
ENDBRANCH  14  15
ENDBRANCH  10  14
BRANCH  11  20
ATOM     20  O4  SGN d 505     -17.988  55.215 173.039  0.00  0.00    -0.348 OA
BRANCH  20  21
ATOM     21  C1  IDS d 506     -18.782  56.348 172.947  0.00  0.00     0.294 C 
ATOM     22  C2  IDS d 506     -18.129  57.334 171.968  0.00  0.00     0.231 C 
ATOM     23  C3  IDS d 506     -18.737  58.762 172.037  0.00  0.00     0.185 C 
ATOM     24  C4  IDS d 506     -19.112  59.210 173.466  0.00  0.00     0.189 C 
ATOM     25  C5  IDS d 506     -19.695  58.039 174.265  0.00  0.00     0.256 C 
ATOM     26  O5  IDS d 506     -18.833  56.951 174.215  0.00  0.00    -0.340 OA
BRANCH  22  27
ATOM     27  O2  IDS d 506     -16.750  57.462 172.254  0.00  0.00    -0.244 OA
BRANCH  27  28
ATOM     28  S   IDS d 506     -15.514  57.023 171.358  0.00  0.00     0.252 S 
ATOM     29  O1S IDS d 506     -14.601  58.123 171.419  0.00  0.00    -0.572 OA
ATOM     30  O2S IDS d 506     -14.939  55.842 171.938  0.00  0.00    -0.572 OA
ATOM     31  O3S IDS d 506     -16.054  56.804 170.034  0.00  0.00    -0.572 OA
ENDBRANCH  27  28
ENDBRANCH  22  27
BRANCH  23  32
ATOM     32  O3  IDS d 506     -19.911  58.794 171.229  0.00  0.00    -0.390 OA
ATOM     33  H   IDS d 506     -19.678  58.578 170.312  0.00  0.00     0.210 HD
ENDBRANCH  23  32
BRANCH  24  34
ATOM     34  O4  IDS d 506     -17.933  59.667 174.084  0.00  0.00    -0.390 OA
ATOM     35  H   IDS d 506     -17.522  60.350 173.532  0.00  0.00     0.210 HD
ENDBRANCH  24  34
BRANCH  25  36
ATOM     36  C6  IDS d 506     -20.067  58.322 175.709  0.00  0.00     0.206 C 
ATOM     37  O62 IDS d 506     -21.194  58.136 176.134  0.00  0.00    -0.646 OA
ATOM     38  O61 IDS d 506     -19.219  58.734 176.489  0.00  0.00    -0.646 OA
ENDBRANCH  25  36
ENDBRANCH  20  21
ENDBRANCH  11  20
BRANCH  12  39
ATOM     39  O3  SGN d 505     -19.680  53.175 171.596  0.00  0.00    -0.391 OA
ATOM     40  H   SGN d 505     -20.304  52.434 171.541  0.00  0.00     0.210 HD
ENDBRANCH  12  39
BRANCH  13  41
ATOM     41  N   SGN d 505     -19.340  50.393 172.496  0.00  0.00    -0.210 NA
ATOM     42  H   SGN d 505     -18.786  49.628 172.882  0.00  0.00     0.140 HD
BRANCH  41  43
ATOM     43  S1  SGN d 505     -20.931  49.871 172.421  0.00  0.00     0.156 S 
BRANCH  43  44
ATOM     44  O3S SGN d 505     -21.701  50.959 171.932  0.00  0.00    -0.296 OA
ATOM     45  H   SGN d 505     -21.758  51.646 172.613  0.00  0.00     0.231 HD
ENDBRANCH  43  44
BRANCH  43  46
ATOM     46  O1S SGN d 505     -20.971  48.713 171.552  0.00  0.00    -0.296 OA
ATOM     47  H   SGN d 505     -21.889  48.529 171.302  0.00  0.00     0.231 HD
ENDBRANCH  43  46
BRANCH  43  48
ATOM     48  O2S SGN d 505     -21.282  49.550 173.785  0.00  0.00    -0.296 OA
ATOM     49  H   SGN d 505     -20.513  49.691 174.359  0.00  0.00     0.231 HD
ENDBRANCH  43  48
ENDBRANCH  41  43
ENDBRANCH  13  41
ENDBRANCH   7   8
ENDBRANCH   2   7
BRANCH   1  50
ATOM     50  O3  IDS d 504     -15.616  47.866 175.408  0.00  0.00    -0.390 OA
ATOM     51  H   IDS d 504     -14.926  48.417 175.810  0.00  0.00     0.210 HD
ENDBRANCH   1  50
BRANCH   6  52
ATOM     52  C6  IDS d 504     -14.053  51.782 174.714  0.00  0.00     0.206 C 
ATOM     53  O62 IDS d 504     -14.251  52.262 175.832  0.00  0.00    -0.646 OA
ATOM     54  O61 IDS d 504     -13.493  52.482 173.880  0.00  0.00    -0.646 OA
ENDBRANCH   6  52
BRANCH   5  55
ATOM     55  O2  IDS d 504     -16.571  48.594 171.927  0.00  0.00    -0.244 OA
BRANCH  55  56
ATOM     56  S   IDS d 504     -17.024  47.790 170.695  0.00  0.00     0.252 S 
ATOM     57  O2S IDS d 504     -16.810  46.402 170.980  0.00  0.00    -0.572 OA
ATOM     58  O3S IDS d 504     -18.379  48.163 170.533  0.00  0.00    -0.572 OA
ATOM     59  O1S IDS d 504     -16.221  48.231 169.613  0.00  0.00    -0.572 OA
ENDBRANCH  55  56
ENDBRANCH   5  55
BRANCH   3  60
ATOM     60  O4  SGN d 503     -13.407  47.865 173.409  0.00  0.00    -0.348 OA
BRANCH  60  61
ATOM     61  C4  SGN d 503     -12.094  47.978 172.967  0.00  0.00     0.186 C 
ATOM     62  C5  SGN d 503     -11.710  46.686 172.225  0.00  0.00     0.181 C 
ATOM     63  O5  SGN d 503     -10.368  46.703 171.853  0.00  0.00    -0.349 OA
ATOM     64  C1  SGN d 503      -9.486  46.780 172.945  0.00  0.00     0.282 C 
ATOM     65  C2  SGN d 503      -9.746  48.077 173.724  0.00  0.00     0.157 C 
ATOM     66  C3  SGN d 503     -11.190  48.175 174.182  0.00  0.00     0.173 C 
BRANCH  62  67
ATOM     67  C6  SGN d 503     -12.458  46.462 170.939  0.00  0.00     0.227 C 
BRANCH  67  68
ATOM     68  O6  SGN d 503     -11.770  47.155 169.921  0.00  0.00    -0.254 OA
BRANCH  68  69
ATOM     69  S2  SGN d 503     -12.426  48.036 168.825  0.00  0.00     0.251 S 
ATOM     70  O6S SGN d 503     -12.892  49.163 169.536  0.00  0.00    -0.572 OA
ATOM     71  O4S SGN d 503     -11.417  48.425 167.900  0.00  0.00    -0.572 OA
ATOM     72  O5S SGN d 503     -13.465  47.229 168.193  0.00  0.00    -0.572 OA
ENDBRANCH  68  69
ENDBRANCH  67  68
ENDBRANCH  62  67
BRANCH  64  73
ATOM     73  O4  IDS d 502      -9.607  45.661 173.781  0.00  0.00    -0.348 OA
BRANCH  73  74
ATOM     74  C4  IDS d 502      -9.399  44.426 173.146  0.00  0.00     0.195 C 
ATOM     75  C3  IDS d 502      -7.921  44.303 172.727  0.00  0.00     0.185 C 
ATOM     76  C2  IDS d 502      -7.016  44.143 173.952  0.00  0.00     0.231 C 
ATOM     77  C1  IDS d 502      -7.539  43.078 174.910  0.00  0.00     0.291 C 
ATOM     78  O5  IDS d 502      -8.893  43.289 175.219  0.00  0.00    -0.340 OA
ATOM     79  C5  IDS d 502      -9.762  43.294 174.104  0.00  0.00     0.257 C 
BRANCH  75  80
ATOM     80  O3  IDS d 502      -7.768  43.155 171.916  0.00  0.00    -0.390 OA
ATOM     81  H   IDS d 502      -8.620  42.697 171.840  0.00  0.00     0.210 HD
ENDBRANCH  75  80
BRANCH  76  82
ATOM     82  O2  IDS d 502      -7.009  45.372 174.628  0.00  0.00    -0.244 OA
BRANCH  82  83
ATOM     83  S   IDS d 502      -5.832  46.396 174.743  0.00  0.00     0.252 S 
ATOM     84  O3S IDS d 502      -6.062  47.340 173.680  0.00  0.00    -0.572 OA
ATOM     85  O2S IDS d 502      -4.621  45.624 174.584  0.00  0.00    -0.572 OA
ATOM     86  O1S IDS d 502      -5.924  47.007 176.039  0.00  0.00    -0.572 OA
ENDBRANCH  82  83
ENDBRANCH  76  82
BRANCH  77  87
ATOM     87  O1  IDS d 502      -7.307  41.823 174.329  0.00  0.00    -0.368 OA
ATOM     88  H   IDS d 502      -7.207  41.156 175.027  0.00  0.00     0.212 HD
ENDBRANCH  77  87
BRANCH  79  89
ATOM     89  C6  IDS d 502     -11.216  43.300 174.554  0.00  0.00     0.206 C 
ATOM     90  O61 IDS d 502     -12.116  43.130 173.768  0.00  0.00    -0.646 OA
ATOM     91  O62 IDS d 502     -11.510  43.472 175.721  0.00  0.00    -0.646 OA
ENDBRANCH  79  89
ENDBRANCH  73  74
ENDBRANCH  64  73
BRANCH  65  92
ATOM     92  N   SGN d 503      -8.827  48.192 174.842  0.00  0.00    -0.210 NA
ATOM     93  H   SGN d 503      -7.992  47.655 174.608  0.00  0.00     0.140 HD
BRANCH  92  94
ATOM     94  S1  SGN d 503      -8.341  49.686 175.267  0.00  0.00     0.156 S 
BRANCH  94  95
ATOM     95  O2S SGN d 503      -6.894  49.655 175.472  0.00  0.00    -0.296 OA
ATOM     96  H   SGN d 503      -6.525  48.862 175.051  0.00  0.00     0.231 HD
ENDBRANCH  94  95
BRANCH  94  97
ATOM     97  O1S SGN d 503      -9.056  50.012 176.487  0.00  0.00    -0.296 OA
ATOM     98  H   SGN d 503      -8.485  50.541 177.065  0.00  0.00     0.231 HD
ENDBRANCH  94  97
BRANCH  94  99
ATOM     99  O3S SGN d 503      -8.756  50.501 174.148  0.00  0.00    -0.296 OA
ATOM    100  H   SGN d 503      -8.138  50.376 173.411  0.00  0.00     0.231 HD
ENDBRANCH  94  99
ENDBRANCH  92  94
ENDBRANCH  65  92
BRANCH  66 101
ATOM    101  O3  SGN d 503     -11.440  49.463 174.713  0.00  0.00    -0.391 OA
ATOM    102  H   SGN d 503     -11.788  50.039 174.015  0.00  0.00     0.210 HD
ENDBRANCH  66 101
ENDBRANCH  60  61
ENDBRANCH   3  60
TORSDOF 40
ENDMDL
MODEL 63
REMARK VINA RESULT:      -2.4      2.452     12.299
REMARK WARNING: 32 MAX_TORS EXCEEDED!!!
REMARK  40 active torsions:
REMARK  status: ('A' for Active; 'I' for Inactive)
REMARK    1 I    between atoms: C6_1  and  C5_8 
REMARK    2 I    between atoms: C6_1  and  O6_57 
REMARK    3 I    between atoms: O4_2  and  C4_49 
REMARK    4 I    between atoms: O6_3  and  C6_7 
REMARK    5 I    between atoms: O6_3  and  S2_58 
REMARK    6 I    between atoms: S_4  and  O2_6 
REMARK    7 I    between atoms: O3_5  and  C3_81 
REMARK    8 I    between atoms: O2_6  and  C2_11 
REMARK    9 I    between atoms: C6_7  and  C5_54 
REMARK   10 I    between atoms: O4_9  and  C4_32 
REMARK   11 I    between atoms: O4_9  and  C1_39 
REMARK   12 I    between atoms: O3_12  and  C3_18 
REMARK   13 I    between atoms: N_13  and  C2_52 
REMARK   14 I    between atoms: N_13  and  S1_45 
REMARK   15 I    between atoms: O3_17  and  C3_83 
REMARK   16 I    between atoms: C4_20  and  O4_44 
REMARK   17 I    between atoms: N_21  and  C2_66 
REMARK   18 I    between atoms: N_21  and  S1_53 
REMARK   19 I    between atoms: O3_22  and  C3_65 
REMARK   20 I    between atoms: C4_23  and  O4_74 
REMARK   21 I    between atoms: C1_25  and  O1_72 
REMARK   22 I    between atoms: C2_28  and  O2_69 
REMARK   23 I    between atoms: C4_33  and  O4_61 
REMARK   24 I    between atoms: O2S_34  and  S1_45 
REMARK   25 I    between atoms: C6_37  and  C5_47 
REMARK   26 I    between atoms: O2_38  and  C2_77 
REMARK   27 I    between atoms: O2_38  and  S_50 
REMARK   28 I    between atoms: O3S_40  and  S1_53 
REMARK   29 I    between atoms: O1S_42  and  S1_45 
REMARK   30 I    between atoms: O1S_43  and  S1_53 
REMARK   31 I    between atoms: O4_44  and  C1_46 
REMARK   32 I    between atoms: S1_45  and  O3S_60 
REMARK   33 I    between atoms: C6_48  and  C5_84 
REMARK   34 I    between atoms: C6_51  and  C5_87 
REMARK   35 I    between atoms: S1_53  and  O2S_55 
REMARK   36 I    between atoms: C1_56  and  O4_74 
REMARK   37 I    between atoms: O6_57  and  S2_82 
REMARK   38 I    between atoms: O4_61  and  C1_70 
REMARK   39 I    between atoms: C3_63  and  O3_79 
REMARK   40 I    between atoms: O2_69  and  S_76 
ROOT
ATOM      1  C3  IDS d 504     -13.323  52.144 175.111  0.00  0.00     0.185 C 
ATOM      2  C4  IDS d 504     -14.433  52.556 174.156  0.00  0.00     0.195 C 
ATOM      3  C1  IDS d 504     -14.047  49.711 174.703  0.00  0.00     0.294 C 
ATOM      4  O5  IDS d 504     -15.063  50.253 173.854  0.00  0.00    -0.340 OA
ATOM      5  C2  IDS d 504     -13.589  50.721 175.736  0.00  0.00     0.231 C 
ATOM      6  C5  IDS d 504     -14.681  51.422 173.165  0.00  0.00     0.257 C 
ENDROOT
BRANCH   2   7
ATOM      7  O4  IDS d 504     -15.614  52.825 174.897  0.00  0.00    -0.348 OA
BRANCH   7   8
ATOM      8  C1  SGN d 505     -15.502  53.920 175.766  0.00  0.00     0.282 C 
ATOM      9  O5  SGN d 505     -15.168  55.076 175.052  0.00  0.00    -0.349 OA
ATOM     10  C5  SGN d 505     -16.149  55.481 174.148  0.00  0.00     0.181 C 
ATOM     11  C4  SGN d 505     -17.395  55.876 174.873  0.00  0.00     0.186 C 
ATOM     12  C3  SGN d 505     -17.919  54.595 175.586  0.00  0.00     0.173 C 
ATOM     13  C2  SGN d 505     -16.787  54.155 176.535  0.00  0.00     0.157 C 
BRANCH  10  14
ATOM     14  C6  SGN d 505     -15.556  56.604 173.361  0.00  0.00     0.227 C 
BRANCH  14  15
ATOM     15  O6  SGN d 505     -14.583  56.017 172.566  0.00  0.00    -0.254 OA
BRANCH  15  16
ATOM     16  S2  SGN d 505     -13.094  56.328 172.552  0.00  0.00     0.251 S 
ATOM     17  O5S SGN d 505     -12.810  56.677 171.182  0.00  0.00    -0.572 OA
ATOM     18  O4S SGN d 505     -12.460  55.110 173.003  0.00  0.00    -0.572 OA
ATOM     19  O6S SGN d 505     -12.885  57.443 173.465  0.00  0.00    -0.572 OA
ENDBRANCH  15  16
ENDBRANCH  14  15
ENDBRANCH  10  14
BRANCH  11  20
ATOM     20  O4  SGN d 505     -18.253  56.423 173.894  0.00  0.00    -0.348 OA
BRANCH  20  21
ATOM     21  C1  IDS d 506     -19.435  57.083 174.193  0.00  0.00     0.294 C 
ATOM     22  C2  IDS d 506     -20.223  57.305 172.894  0.00  0.00     0.231 C 
ATOM     23  C3  IDS d 506     -21.389  58.321 173.048  0.00  0.00     0.185 C 
ATOM     24  C4  IDS d 506     -21.059  59.509 173.976  0.00  0.00     0.189 C 
ATOM     25  C5  IDS d 506     -20.222  59.046 175.173  0.00  0.00     0.256 C 
ATOM     26  O5  IDS d 506     -19.110  58.339 174.733  0.00  0.00    -0.340 OA
BRANCH  22  27
ATOM     27  O2  IDS d 506     -19.369  57.811 171.887  0.00  0.00    -0.244 OA
BRANCH  27  28
ATOM     28  S   IDS d 506     -19.052  57.187 170.461  0.00  0.00     0.252 S 
ATOM     29  O1S IDS d 506     -17.772  56.563 170.604  0.00  0.00    -0.572 OA
ATOM     30  O2S IDS d 506     -20.067  56.217 170.162  0.00  0.00    -0.572 OA
ATOM     31  O3S IDS d 506     -19.041  58.305 169.543  0.00  0.00    -0.572 OA
ENDBRANCH  27  28
ENDBRANCH  22  27
BRANCH  23  32
ATOM     32  O3  IDS d 506     -22.521  57.634 173.576  0.00  0.00    -0.390 OA
ATOM     33  H   IDS d 506     -22.370  56.677 173.528  0.00  0.00     0.210 HD
ENDBRANCH  23  32
BRANCH  24  34
ATOM     34  O4  IDS d 506     -20.327  60.442 173.216  0.00  0.00    -0.390 OA
ATOM     35  H   IDS d 506     -19.572  59.999 172.799  0.00  0.00     0.210 HD
ENDBRANCH  24  34
BRANCH  25  36
ATOM     36  C6  IDS d 506     -19.781  60.121 176.149  0.00  0.00     0.206 C 
ATOM     37  O62 IDS d 506     -20.527  60.561 177.007  0.00  0.00    -0.646 OA
ATOM     38  O61 IDS d 506     -18.641  60.562 176.100  0.00  0.00    -0.646 OA
ENDBRANCH  25  36
ENDBRANCH  20  21
ENDBRANCH  11  20
BRANCH  12  39
ATOM     39  O3  SGN d 505     -19.070  54.894 176.365  0.00  0.00    -0.391 OA
ATOM     40  H   SGN d 505     -19.251  55.846 176.322  0.00  0.00     0.210 HD
ENDBRANCH  12  39
BRANCH  13  41
ATOM     41  N   SGN d 505     -17.085  52.965 177.366  0.00  0.00    -0.210 NA
ATOM     42  H   SGN d 505     -17.502  53.296 178.236  0.00  0.00     0.140 HD
BRANCH  41  43
ATOM     43  S1  SGN d 505     -18.115  51.810 176.724  0.00  0.00     0.156 S 
BRANCH  43  44
ATOM     44  O3S SGN d 505     -19.369  51.970 177.370  0.00  0.00    -0.296 OA
ATOM     45  H   SGN d 505     -19.453  52.880 177.693  0.00  0.00     0.231 HD
ENDBRANCH  43  44
BRANCH  43  46
ATOM     46  O1S SGN d 505     -18.183  52.030 175.295  0.00  0.00    -0.296 OA
ATOM     47  H   SGN d 505     -19.016  51.671 174.952  0.00  0.00     0.231 HD
ENDBRANCH  43  46
BRANCH  43  48
ATOM     48  O2S SGN d 505     -17.508  50.543 177.059  0.00  0.00    -0.296 OA
ATOM     49  H   SGN d 505     -16.801  50.345 176.425  0.00  0.00     0.231 HD
ENDBRANCH  43  48
ENDBRANCH  41  43
ENDBRANCH  13  41
ENDBRANCH   7   8
ENDBRANCH   2   7
BRANCH   1  50
ATOM     50  O3  IDS d 504     -12.115  52.117 174.361  0.00  0.00    -0.390 OA
ATOM     51  H   IDS d 504     -12.286  52.441 173.462  0.00  0.00     0.210 HD
ENDBRANCH   1  50
BRANCH   6  52
ATOM     52  C6  IDS d 504     -15.687  51.740 172.047  0.00  0.00     0.206 C 
ATOM     53  O62 IDS d 504     -15.397  51.571 170.861  0.00  0.00    -0.646 OA
ATOM     54  O61 IDS d 504     -16.797  52.187 172.307  0.00  0.00    -0.646 OA
ENDBRANCH   6  52
BRANCH   5  55
ATOM     55  O2  IDS d 504     -14.583  50.802 176.755  0.00  0.00    -0.244 OA
BRANCH  55  56
ATOM     56  S   IDS d 504     -14.584  50.055 178.102  0.00  0.00     0.252 S 
ATOM     57  O2S IDS d 504     -15.110  50.948 179.092  0.00  0.00    -0.572 OA
ATOM     58  O3S IDS d 504     -15.378  48.912 177.849  0.00  0.00    -0.572 OA
ATOM     59  O1S IDS d 504     -13.235  49.713 178.370  0.00  0.00    -0.572 OA
ENDBRANCH  55  56
ENDBRANCH   5  55
BRANCH   3  60
ATOM     60  O4  SGN d 503     -12.927  49.275 173.988  0.00  0.00    -0.348 OA
BRANCH  60  61
ATOM     61  C4  SGN d 503     -13.080  48.023 173.403  0.00  0.00     0.186 C 
ATOM     62  C5  SGN d 503     -12.005  47.079 173.968  0.00  0.00     0.181 C 
ATOM     63  O5  SGN d 503     -12.046  45.838 173.337  0.00  0.00    -0.349 OA
ATOM     64  C1  SGN d 503     -11.792  45.906 171.956  0.00  0.00     0.282 C 
ATOM     65  C2  SGN d 503     -12.856  46.782 171.280  0.00  0.00     0.157 C 
ATOM     66  C3  SGN d 503     -12.909  48.170 171.892  0.00  0.00     0.173 C 
BRANCH  62  67
ATOM     67  C6  SGN d 503     -12.161  46.765 175.432  0.00  0.00     0.227 C 
BRANCH  67  68
ATOM     68  O6  SGN d 503     -13.320  45.973 175.576  0.00  0.00    -0.254 OA
BRANCH  68  69
ATOM     69  S2  SGN d 503     -13.937  45.513 176.923  0.00  0.00     0.251 S 
ATOM     70  O6S SGN d 503     -15.323  45.711 176.741  0.00  0.00    -0.572 OA
ATOM     71  O4S SGN d 503     -13.659  44.128 177.093  0.00  0.00    -0.572 OA
ATOM     72  O5S SGN d 503     -13.328  46.325 177.972  0.00  0.00    -0.572 OA
ENDBRANCH  68  69
ENDBRANCH  67  68
ENDBRANCH  62  67
BRANCH  64  73
ATOM     73  O4  IDS d 502     -10.503  46.392 171.695  0.00  0.00    -0.348 OA
BRANCH  73  74
ATOM     74  C4  IDS d 502      -9.528  45.400 171.504  0.00  0.00     0.195 C 
ATOM     75  C3  IDS d 502      -9.338  45.146 169.996  0.00  0.00     0.185 C 
ATOM     76  C2  IDS d 502      -8.659  46.340 169.320  0.00  0.00     0.231 C 
ATOM     77  C1  IDS d 502      -7.425  46.803 170.089  0.00  0.00     0.291 C 
ATOM     78  O5  IDS d 502      -7.715  47.000 171.450  0.00  0.00    -0.340 OA
ATOM     79  C5  IDS d 502      -8.209  45.859 172.123  0.00  0.00     0.257 C 
BRANCH  75  80
ATOM     80  O3  IDS d 502      -8.508  44.013 169.823  0.00  0.00    -0.390 OA
ATOM     81  H   IDS d 502      -8.643  43.398 170.560  0.00  0.00     0.210 HD
ENDBRANCH  75  80
BRANCH  76  82
ATOM     82  O2  IDS d 502      -9.584  47.394 169.308  0.00  0.00    -0.244 OA
BRANCH  82  83
ATOM     83  S   IDS d 502      -9.794  48.471 168.194  0.00  0.00     0.252 S 
ATOM     84  O3S IDS d 502     -10.913  49.256 168.647  0.00  0.00    -0.572 OA
ATOM     85  O2S IDS d 502     -10.052  47.736 166.977  0.00  0.00    -0.572 OA
ATOM     86  O1S IDS d 502      -8.586  49.246 168.118  0.00  0.00    -0.572 OA
ENDBRANCH  82  83
ENDBRANCH  76  82
BRANCH  77  87
ATOM     87  O1  IDS d 502      -6.409  45.857 169.886  0.00  0.00    -0.368 OA
ATOM     88  H   IDS d 502      -6.594  45.065 170.415  0.00  0.00     0.212 HD
ENDBRANCH  77  87
BRANCH  79  89
ATOM     89  C6  IDS d 502      -8.276  46.105 173.623  0.00  0.00     0.206 C 
ATOM     90  O61 IDS d 502      -8.639  45.241 174.384  0.00  0.00    -0.646 OA
ATOM     91  O62 IDS d 502      -7.959  47.179 174.096  0.00  0.00    -0.646 OA
ENDBRANCH  79  89
ENDBRANCH  73  74
ENDBRANCH  64  73
BRANCH  65  92
ATOM     92  N   SGN d 503     -12.630  46.844 169.847  0.00  0.00    -0.210 NA
ATOM     93  H   SGN d 503     -12.279  45.932 169.554  0.00  0.00     0.140 HD
BRANCH  92  94
ATOM     94  S1  SGN d 503     -13.902  47.205 168.898  0.00  0.00     0.156 S 
BRANCH  94  95
ATOM     95  O2S SGN d 503     -13.812  48.618 168.533  0.00  0.00    -0.296 OA
ATOM     96  H   SGN d 503     -12.960  48.787 168.101  0.00  0.00     0.231 HD
ENDBRANCH  94  95
BRANCH  94  97
ATOM     97  O1S SGN d 503     -15.087  46.919 169.685  0.00  0.00    -0.296 OA
ATOM     98  H   SGN d 503     -15.874  47.005 169.125  0.00  0.00     0.231 HD
ENDBRANCH  94  97
BRANCH  94  99
ATOM     99  O3S SGN d 503     -13.748  46.301 167.781  0.00  0.00    -0.296 OA
ATOM    100  H   SGN d 503     -12.805  46.178 167.593  0.00  0.00     0.231 HD
ENDBRANCH  94  99
ENDBRANCH  92  94
ENDBRANCH  65  92
BRANCH  66 101
ATOM    101  O3  SGN d 503     -14.027  48.877 171.389  0.00  0.00    -0.391 OA
ATOM    102  H   SGN d 503     -14.711  48.930 172.074  0.00  0.00     0.210 HD
ENDBRANCH  66 101
ENDBRANCH  60  61
ENDBRANCH   3  60
TORSDOF 40
ENDMDL
MODEL 64
REMARK VINA RESULT:      -2.4      3.040     13.089
REMARK WARNING: 32 MAX_TORS EXCEEDED!!!
REMARK  40 active torsions:
REMARK  status: ('A' for Active; 'I' for Inactive)
REMARK    1 I    between atoms: C6_1  and  C5_8 
REMARK    2 I    between atoms: C6_1  and  O6_57 
REMARK    3 I    between atoms: O4_2  and  C4_49 
REMARK    4 I    between atoms: O6_3  and  C6_7 
REMARK    5 I    between atoms: O6_3  and  S2_58 
REMARK    6 I    between atoms: S_4  and  O2_6 
REMARK    7 I    between atoms: O3_5  and  C3_81 
REMARK    8 I    between atoms: O2_6  and  C2_11 
REMARK    9 I    between atoms: C6_7  and  C5_54 
REMARK   10 I    between atoms: O4_9  and  C4_32 
REMARK   11 I    between atoms: O4_9  and  C1_39 
REMARK   12 I    between atoms: O3_12  and  C3_18 
REMARK   13 I    between atoms: N_13  and  C2_52 
REMARK   14 I    between atoms: N_13  and  S1_45 
REMARK   15 I    between atoms: O3_17  and  C3_83 
REMARK   16 I    between atoms: C4_20  and  O4_44 
REMARK   17 I    between atoms: N_21  and  C2_66 
REMARK   18 I    between atoms: N_21  and  S1_53 
REMARK   19 I    between atoms: O3_22  and  C3_65 
REMARK   20 I    between atoms: C4_23  and  O4_74 
REMARK   21 I    between atoms: C1_25  and  O1_72 
REMARK   22 I    between atoms: C2_28  and  O2_69 
REMARK   23 I    between atoms: C4_33  and  O4_61 
REMARK   24 I    between atoms: O2S_34  and  S1_45 
REMARK   25 I    between atoms: C6_37  and  C5_47 
REMARK   26 I    between atoms: O2_38  and  C2_77 
REMARK   27 I    between atoms: O2_38  and  S_50 
REMARK   28 I    between atoms: O3S_40  and  S1_53 
REMARK   29 I    between atoms: O1S_42  and  S1_45 
REMARK   30 I    between atoms: O1S_43  and  S1_53 
REMARK   31 I    between atoms: O4_44  and  C1_46 
REMARK   32 I    between atoms: S1_45  and  O3S_60 
REMARK   33 I    between atoms: C6_48  and  C5_84 
REMARK   34 I    between atoms: C6_51  and  C5_87 
REMARK   35 I    between atoms: S1_53  and  O2S_55 
REMARK   36 I    between atoms: C1_56  and  O4_74 
REMARK   37 I    between atoms: O6_57  and  S2_82 
REMARK   38 I    between atoms: O4_61  and  C1_70 
REMARK   39 I    between atoms: C3_63  and  O3_79 
REMARK   40 I    between atoms: O2_69  and  S_76 
ROOT
ATOM      1  C3  IDS d 504     -15.454  48.580 176.454  0.00  0.00     0.185 C 
ATOM      2  C4  IDS d 504     -15.518  50.079 176.705  0.00  0.00     0.195 C 
ATOM      3  C1  IDS d 504     -13.846  49.099 174.516  0.00  0.00     0.294 C 
ATOM      4  O5  IDS d 504     -14.030  50.478 174.855  0.00  0.00    -0.340 OA
ATOM      5  C2  IDS d 504     -15.017  48.253 174.974  0.00  0.00     0.231 C 
ATOM      6  C5  IDS d 504     -14.213  50.717 176.232  0.00  0.00     0.257 C 
ENDROOT
BRANCH   2   7
ATOM      7  O4  IDS d 504     -16.617  50.627 175.992  0.00  0.00    -0.348 OA
BRANCH   7   8
ATOM      8  C1  SGN d 505     -17.684  51.022 176.812  0.00  0.00     0.282 C 
ATOM      9  O5  SGN d 505     -17.609  52.393 177.084  0.00  0.00    -0.349 OA
ATOM     10  C5  SGN d 505     -17.755  53.198 175.954  0.00  0.00     0.181 C 
ATOM     11  C4  SGN d 505     -19.123  53.039 175.375  0.00  0.00     0.186 C 
ATOM     12  C3  SGN d 505     -19.240  51.559 174.909  0.00  0.00     0.173 C 
ATOM     13  C2  SGN d 505     -19.023  50.706 176.174  0.00  0.00     0.157 C 
BRANCH  10  14
ATOM     14  C6  SGN d 505     -17.472  54.597 176.398  0.00  0.00     0.227 C 
BRANCH  14  15
ATOM     15  O6  SGN d 505     -16.431  55.030 175.590  0.00  0.00    -0.254 OA
BRANCH  15  16
ATOM     16  S2  SGN d 505     -15.511  56.218 175.831  0.00  0.00     0.251 S 
ATOM     17  O5S SGN d 505     -16.386  57.363 175.814  0.00  0.00    -0.572 OA
ATOM     18  O4S SGN d 505     -14.561  56.173 174.743  0.00  0.00    -0.572 OA
ATOM     19  O6S SGN d 505     -14.886  56.012 177.131  0.00  0.00    -0.572 OA
ENDBRANCH  15  16
ENDBRANCH  14  15
ENDBRANCH  10  14
BRANCH  11  20
ATOM     20  O4  SGN d 505     -19.223  54.009 174.353  0.00  0.00    -0.348 OA
BRANCH  20  21
ATOM     21  C1  IDS d 506     -20.344  54.801 174.154  0.00  0.00     0.294 C 
ATOM     22  C2  IDS d 506     -20.179  55.575 172.839  0.00  0.00     0.231 C 
ATOM     23  C3  IDS d 506     -21.199  56.736 172.676  0.00  0.00     0.185 C 
ATOM     24  C4  IDS d 506     -21.504  57.483 173.991  0.00  0.00     0.189 C 
ATOM     25  C5  IDS d 506     -21.568  56.505 175.169  0.00  0.00     0.256 C 
ATOM     26  O5  IDS d 506     -20.417  55.728 175.207  0.00  0.00    -0.340 OA
BRANCH  22  27
ATOM     27  O2  IDS d 506     -18.889  56.151 172.772  0.00  0.00    -0.244 OA
BRANCH  27  28
ATOM     28  S   IDS d 506     -17.881  56.168 171.543  0.00  0.00     0.252 S 
ATOM     29  O1S IDS d 506     -18.663  55.763 170.416  0.00  0.00    -0.572 OA
ATOM     30  O2S IDS d 506     -17.398  57.510 171.381  0.00  0.00    -0.572 OA
ATOM     31  O3S IDS d 506     -16.840  55.223 171.884  0.00  0.00    -0.572 OA
ENDBRANCH  27  28
ENDBRANCH  22  27
BRANCH  23  32
ATOM     32  O3  IDS d 506     -22.417  56.200 172.166  0.00  0.00    -0.390 OA
ATOM     33  H   IDS d 506     -22.919  55.793 172.890  0.00  0.00     0.210 HD
ENDBRANCH  23  32
BRANCH  24  34
ATOM     34  O4  IDS d 506     -20.463  58.409 174.198  0.00  0.00    -0.390 OA
ATOM     35  H   IDS d 506     -20.478  58.713 175.119  0.00  0.00     0.210 HD
ENDBRANCH  24  34
BRANCH  25  36
ATOM     36  C6  IDS d 506     -21.815  57.108 176.540  0.00  0.00     0.206 C 
ATOM     37  O62 IDS d 506     -21.674  56.463 177.564  0.00  0.00    -0.646 OA
ATOM     38  O61 IDS d 506     -22.151  58.280 176.641  0.00  0.00    -0.646 OA
ENDBRANCH  25  36
ENDBRANCH  20  21
ENDBRANCH  11  20
BRANCH  12  39
ATOM     39  O3  SGN d 505     -20.543  51.296 174.405  0.00  0.00    -0.391 OA
ATOM     40  H   SGN d 505     -21.172  51.929 174.787  0.00  0.00     0.210 HD
ENDBRANCH  12  39
BRANCH  13  41
ATOM     41  N   SGN d 505     -19.138  49.242 175.979  0.00  0.00    -0.210 NA
ATOM     42  H   SGN d 505     -18.309  48.812 176.389  0.00  0.00     0.140 HD
BRANCH  41  43
ATOM     43  S1  SGN d 505     -20.477  48.477 176.637  0.00  0.00     0.156 S 
BRANCH  43  44
ATOM     44  O3S SGN d 505     -20.922  47.527 175.681  0.00  0.00    -0.296 OA
ATOM     45  H   SGN d 505     -21.431  46.833 176.128  0.00  0.00     0.231 HD
ENDBRANCH  43  44
BRANCH  43  46
ATOM     46  O1S SGN d 505     -20.065  47.873 177.886  0.00  0.00    -0.296 OA
ATOM     47  H   SGN d 505     -19.652  47.014 177.709  0.00  0.00     0.231 HD
ENDBRANCH  43  46
BRANCH  43  48
ATOM     48  O2S SGN d 505     -21.450  49.528 176.826  0.00  0.00    -0.296 OA
ATOM     49  H   SGN d 505     -21.075  50.217 177.397  0.00  0.00     0.231 HD
ENDBRANCH  43  48
ENDBRANCH  41  43
ENDBRANCH  13  41
ENDBRANCH   7   8
ENDBRANCH   2   7
BRANCH   1  50
ATOM     50  O3  IDS d 504     -14.499  48.045 177.362  0.00  0.00    -0.390 OA
ATOM     51  H   IDS d 504     -14.141  48.759 177.912  0.00  0.00     0.210 HD
ENDBRANCH   1  50
BRANCH   6  52
ATOM     52  C6  IDS d 504     -14.071  52.216 176.541  0.00  0.00     0.206 C 
ATOM     53  O62 IDS d 504     -13.716  53.015 175.671  0.00  0.00    -0.646 OA
ATOM     54  O61 IDS d 504     -14.289  52.651 177.665  0.00  0.00    -0.646 OA
ENDBRANCH   6  52
BRANCH   5  55
ATOM     55  O2  IDS d 504     -16.104  48.467 174.075  0.00  0.00    -0.244 OA
BRANCH  55  56
ATOM     56  S   IDS d 504     -16.988  47.387 173.427  0.00  0.00     0.252 S 
ATOM     57  O2S IDS d 504     -17.444  47.897 172.167  0.00  0.00    -0.572 OA
ATOM     58  O3S IDS d 504     -16.132  46.263 173.340  0.00  0.00    -0.572 OA
ATOM     59  O1S IDS d 504     -18.066  47.163 174.320  0.00  0.00    -0.572 OA
ENDBRANCH  55  56
ENDBRANCH   5  55
BRANCH   3  60
ATOM     60  O4  SGN d 503     -12.676  48.564 175.064  0.00  0.00    -0.348 OA
BRANCH  60  61
ATOM     61  C4  SGN d 503     -11.514  48.951 174.406  0.00  0.00     0.186 C 
ATOM     62  C5  SGN d 503     -11.086  47.821 173.454  0.00  0.00     0.181 C 
ATOM     63  O5  SGN d 503      -9.866  48.113 172.846  0.00  0.00    -0.349 OA
ATOM     64  C1  SGN d 503      -8.807  48.252 173.760  0.00  0.00     0.282 C 
ATOM     65  C2  SGN d 503      -9.109  49.407 174.725  0.00  0.00     0.157 C 
ATOM     66  C3  SGN d 503     -10.427  49.201 175.449  0.00  0.00     0.173 C 
BRANCH  62  67
ATOM     67  C6  SGN d 503     -12.032  47.580 172.309  0.00  0.00     0.227 C 
BRANCH  67  68
ATOM     68  O6  SGN d 503     -11.637  48.422 171.247  0.00  0.00    -0.254 OA
BRANCH  68  69
ATOM     69  S2  SGN d 503     -11.588  48.023 169.749  0.00  0.00     0.251 S 
ATOM     70  O6S SGN d 503     -12.719  47.195 169.585  0.00  0.00    -0.572 OA
ATOM     71  O4S SGN d 503     -11.729  49.204 168.967  0.00  0.00    -0.572 OA
ATOM     72  O5S SGN d 503     -10.303  47.368 169.522  0.00  0.00    -0.572 OA
ENDBRANCH  68  69
ENDBRANCH  67  68
ENDBRANCH  62  67
BRANCH  64  73
ATOM     73  O4  IDS d 502      -8.575  47.060 174.461  0.00  0.00    -0.348 OA
BRANCH  73  74
ATOM     74  C4  IDS d 502      -8.325  45.940 173.651  0.00  0.00     0.195 C 
ATOM     75  C3  IDS d 502      -6.940  46.078 172.993  0.00  0.00     0.185 C 
ATOM     76  C2  IDS d 502      -5.822  45.929 174.029  0.00  0.00     0.231 C 
ATOM     77  C1  IDS d 502      -6.031  44.707 174.918  0.00  0.00     0.291 C 
ATOM     78  O5  IDS d 502      -7.327  44.684 175.461  0.00  0.00    -0.340 OA
ATOM     79  C5  IDS d 502      -8.370  44.676 174.506  0.00  0.00     0.257 C 
BRANCH  75  80
ATOM     80  O3  IDS d 502      -6.785  45.053 172.031  0.00  0.00    -0.390 OA
ATOM     81  H   IDS d 502      -6.790  44.190 172.474  0.00  0.00     0.210 HD
ENDBRANCH  75  80
BRANCH  76  82
ATOM     82  O2  IDS d 502      -5.855  47.070 174.844  0.00  0.00    -0.244 OA
BRANCH  82  83
ATOM     83  S   IDS d 502      -4.860  48.277 174.842  0.00  0.00     0.252 S 
ATOM     84  O3S IDS d 502      -4.813  48.716 176.212  0.00  0.00    -0.572 OA
ATOM     85  O2S IDS d 502      -5.425  49.251 173.937  0.00  0.00    -0.572 OA
ATOM     86  O1S IDS d 502      -3.591  47.782 174.388  0.00  0.00    -0.572 OA
ENDBRANCH  82  83
ENDBRANCH  76  82
BRANCH  77  87
ATOM     87  O1  IDS d 502      -5.746  43.564 174.155  0.00  0.00    -0.368 OA
ATOM     88  H   IDS d 502      -5.816  43.780 173.212  0.00  0.00     0.212 HD
ENDBRANCH  77  87
BRANCH  79  89
ATOM     89  C6  IDS d 502      -9.712  44.422 175.178  0.00  0.00     0.206 C 
ATOM     90  O61 IDS d 502     -10.741  44.434 174.546  0.00  0.00    -0.646 OA
ATOM     91  O62 IDS d 502      -9.783  44.197 176.370  0.00  0.00    -0.646 OA
ENDBRANCH  79  89
ENDBRANCH  73  74
ENDBRANCH  64  73
BRANCH  65  92
ATOM     92  N   SGN d 503      -8.014  49.587 175.662  0.00  0.00    -0.210 NA
ATOM     93  H   SGN d 503      -7.178  49.188 175.234  0.00  0.00     0.140 HD
BRANCH  92  94
ATOM     94  S1  SGN d 503      -7.651  51.107 176.114  0.00  0.00     0.156 S 
BRANCH  94  95
ATOM     95  O2S SGN d 503      -6.196  51.235 176.160  0.00  0.00    -0.296 OA
ATOM     96  H   SGN d 503      -5.893  51.757 175.400  0.00  0.00     0.231 HD
ENDBRANCH  94  95
BRANCH  94  97
ATOM     97  O1S SGN d 503      -8.256  51.296 177.419  0.00  0.00    -0.296 OA
ATOM     98  H   SGN d 503      -7.809  52.023 177.880  0.00  0.00     0.231 HD
ENDBRANCH  94  97
BRANCH  94  99
ATOM     99  O3S SGN d 503      -8.278  51.915 175.092  0.00  0.00    -0.296 OA
ATOM    100  H   SGN d 503      -7.723  51.916 174.297  0.00  0.00     0.231 HD
ENDBRANCH  94  99
ENDBRANCH  92  94
ENDBRANCH  65  92
BRANCH  66 101
ATOM    101  O3  SGN d 503     -10.769  50.369 176.170  0.00  0.00    -0.391 OA
ATOM    102  H   SGN d 503     -10.765  51.132 175.571  0.00  0.00     0.210 HD
ENDBRANCH  66 101
ENDBRANCH  60  61
ENDBRANCH   3  60
TORSDOF 40
ENDMDL
MODEL 65
REMARK VINA RESULT:      -2.4      4.699      6.932
REMARK WARNING: 32 MAX_TORS EXCEEDED!!!
REMARK  40 active torsions:
REMARK  status: ('A' for Active; 'I' for Inactive)
REMARK    1 I    between atoms: C6_1  and  C5_8 
REMARK    2 I    between atoms: C6_1  and  O6_57 
REMARK    3 I    between atoms: O4_2  and  C4_49 
REMARK    4 I    between atoms: O6_3  and  C6_7 
REMARK    5 I    between atoms: O6_3  and  S2_58 
REMARK    6 I    between atoms: S_4  and  O2_6 
REMARK    7 I    between atoms: O3_5  and  C3_81 
REMARK    8 I    between atoms: O2_6  and  C2_11 
REMARK    9 I    between atoms: C6_7  and  C5_54 
REMARK   10 I    between atoms: O4_9  and  C4_32 
REMARK   11 I    between atoms: O4_9  and  C1_39 
REMARK   12 I    between atoms: O3_12  and  C3_18 
REMARK   13 I    between atoms: N_13  and  C2_52 
REMARK   14 I    between atoms: N_13  and  S1_45 
REMARK   15 I    between atoms: O3_17  and  C3_83 
REMARK   16 I    between atoms: C4_20  and  O4_44 
REMARK   17 I    between atoms: N_21  and  C2_66 
REMARK   18 I    between atoms: N_21  and  S1_53 
REMARK   19 I    between atoms: O3_22  and  C3_65 
REMARK   20 I    between atoms: C4_23  and  O4_74 
REMARK   21 I    between atoms: C1_25  and  O1_72 
REMARK   22 I    between atoms: C2_28  and  O2_69 
REMARK   23 I    between atoms: C4_33  and  O4_61 
REMARK   24 I    between atoms: O2S_34  and  S1_45 
REMARK   25 I    between atoms: C6_37  and  C5_47 
REMARK   26 I    between atoms: O2_38  and  C2_77 
REMARK   27 I    between atoms: O2_38  and  S_50 
REMARK   28 I    between atoms: O3S_40  and  S1_53 
REMARK   29 I    between atoms: O1S_42  and  S1_45 
REMARK   30 I    between atoms: O1S_43  and  S1_53 
REMARK   31 I    between atoms: O4_44  and  C1_46 
REMARK   32 I    between atoms: S1_45  and  O3S_60 
REMARK   33 I    between atoms: C6_48  and  C5_84 
REMARK   34 I    between atoms: C6_51  and  C5_87 
REMARK   35 I    between atoms: S1_53  and  O2S_55 
REMARK   36 I    between atoms: C1_56  and  O4_74 
REMARK   37 I    between atoms: O6_57  and  S2_82 
REMARK   38 I    between atoms: O4_61  and  C1_70 
REMARK   39 I    between atoms: C3_63  and  O3_79 
REMARK   40 I    between atoms: O2_69  and  S_76 
ROOT
ATOM      1  C3  IDS d 504     -13.297  49.797 176.307  0.00  0.00     0.185 C 
ATOM      2  C4  IDS d 504     -12.494  48.577 175.885  0.00  0.00     0.195 C 
ATOM      3  C1  IDS d 504     -14.702  49.452 174.181  0.00  0.00     0.294 C 
ATOM      4  O5  IDS d 504     -13.840  48.344 173.903  0.00  0.00    -0.340 OA
ATOM      5  C2  IDS d 504     -14.028  50.469 175.081  0.00  0.00     0.231 C 
ATOM      6  C5  IDS d 504     -13.385  47.661 175.049  0.00  0.00     0.257 C 
ENDROOT
BRANCH   2   7
ATOM      7  O4  IDS d 504     -11.371  48.995 175.123  0.00  0.00    -0.348 OA
BRANCH   7   8
ATOM      8  C1  SGN d 505     -10.139  48.608 175.669  0.00  0.00     0.282 C 
ATOM      9  O5  SGN d 505      -9.711  47.402 175.101  0.00  0.00    -0.349 OA
ATOM     10  C5  SGN d 505      -9.446  47.488 173.734  0.00  0.00     0.181 C 
ATOM     11  C4  SGN d 505      -8.297  48.410 173.484  0.00  0.00     0.186 C 
ATOM     12  C3  SGN d 505      -8.747  49.821 173.960  0.00  0.00     0.173 C 
ATOM     13  C2  SGN d 505      -9.078  49.670 175.458  0.00  0.00     0.157 C 
BRANCH  10  14
ATOM     14  C6  SGN d 505      -9.181  46.092 173.270  0.00  0.00     0.227 C 
BRANCH  14  15
ATOM     15  O6  SGN d 505      -9.808  45.994 172.037  0.00  0.00    -0.254 OA
BRANCH  15  16
ATOM     16  S2  SGN d 505      -9.996  44.741 171.196  0.00  0.00     0.251 S 
ATOM     17  O5S SGN d 505      -8.774  44.628 170.438  0.00  0.00    -0.572 OA
ATOM     18  O4S SGN d 505     -11.173  45.005 170.400  0.00  0.00    -0.572 OA
ATOM     19  O6S SGN d 505     -10.181  43.632 172.123  0.00  0.00    -0.572 OA
ENDBRANCH  15  16
ENDBRANCH  14  15
ENDBRANCH  10  14
BRANCH  11  20
ATOM     20  O4  SGN d 505      -8.004  48.296 172.107  0.00  0.00    -0.348 OA
BRANCH  20  21
ATOM     21  C1  IDS d 506      -6.737  48.029 171.612  0.00  0.00     0.294 C 
ATOM     22  C2  IDS d 506      -6.769  48.137 170.080  0.00  0.00     0.231 C 
ATOM     23  C3  IDS d 506      -5.511  47.536 169.395  0.00  0.00     0.185 C 
ATOM     24  C4  IDS d 506      -4.981  46.258 170.079  0.00  0.00     0.189 C 
ATOM     25  C5  IDS d 506      -5.101  46.369 171.602  0.00  0.00     0.256 C 
ATOM     26  O5  IDS d 506      -6.401  46.709 171.955  0.00  0.00    -0.340 OA
BRANCH  22  27
ATOM     27  O2  IDS d 506      -7.887  47.439 169.567  0.00  0.00    -0.244 OA
BRANCH  27  28
ATOM     28  S   IDS d 506      -8.890  47.893 168.422  0.00  0.00     0.252 S 
ATOM     29  O1S IDS d 506      -8.685  46.961 167.356  0.00  0.00    -0.572 OA
ATOM     30  O2S IDS d 506     -10.227  47.801 168.937  0.00  0.00    -0.572 OA
ATOM     31  O3S IDS d 506      -8.501  49.245 168.080  0.00  0.00    -0.572 OA
ENDBRANCH  27  28
ENDBRANCH  22  27
BRANCH  23  32
ATOM     32  O3  IDS d 506      -4.478  48.518 169.406  0.00  0.00    -0.390 OA
ATOM     33  H   IDS d 506      -4.814  49.346 169.027  0.00  0.00     0.210 HD
ENDBRANCH  23  32
BRANCH  24  34
ATOM     34  O4  IDS d 506      -5.763  45.182 169.617  0.00  0.00    -0.390 OA
ATOM     35  H   IDS d 506      -5.837  45.226 168.651  0.00  0.00     0.210 HD
ENDBRANCH  24  34
BRANCH  25  36
ATOM     36  C6  IDS d 506      -4.660  45.161 172.408  0.00  0.00     0.206 C 
ATOM     37  O62 IDS d 506      -4.856  45.078 173.608  0.00  0.00    -0.646 OA
ATOM     38  O61 IDS d 506      -4.104  44.224 171.851  0.00  0.00    -0.646 OA
ENDBRANCH  25  36
ENDBRANCH  20  21
ENDBRANCH  11  20
BRANCH  12  39
ATOM     39  O3  SGN d 505      -7.684  50.756 173.826  0.00  0.00    -0.391 OA
ATOM     40  H   SGN d 505      -6.925  50.462 174.355  0.00  0.00     0.210 HD
ENDBRANCH  12  39
BRANCH  13  41
ATOM     41  N   SGN d 505      -9.489  50.916 176.145  0.00  0.00    -0.210 NA
ATOM     42  H   SGN d 505      -9.961  50.647 177.008  0.00  0.00     0.140 HD
BRANCH  41  43
ATOM     43  S1  SGN d 505      -8.285  52.009 176.552  0.00  0.00     0.156 S 
BRANCH  43  44
ATOM     44  O3S SGN d 505      -8.651  52.584 177.797  0.00  0.00    -0.296 OA
ATOM     45  H   SGN d 505      -8.346  53.504 177.830  0.00  0.00     0.231 HD
ENDBRANCH  43  44
BRANCH  43  46
ATOM     46  O1S SGN d 505      -7.035  51.281 176.611  0.00  0.00    -0.296 OA
ATOM     47  H   SGN d 505      -7.002  50.636 175.887  0.00  0.00     0.231 HD
ENDBRANCH  43  46
BRANCH  43  48
ATOM     48  O2S SGN d 505      -8.302  52.991 175.493  0.00  0.00    -0.296 OA
ATOM     49  H   SGN d 505      -8.498  52.555 174.649  0.00  0.00     0.231 HD
ENDBRANCH  43  48
ENDBRANCH  41  43
ENDBRANCH  13  41
ENDBRANCH   7   8
ENDBRANCH   2   7
BRANCH   1  50
ATOM     50  O3  IDS d 504     -14.263  49.355 177.253  0.00  0.00    -0.390 OA
ATOM     51  H   IDS d 504     -14.005  48.485 177.595  0.00  0.00     0.210 HD
ENDBRANCH   1  50
BRANCH   6  52
ATOM     52  C6  IDS d 504     -12.753  46.315 174.657  0.00  0.00     0.206 C 
ATOM     53  O62 IDS d 504     -12.255  45.574 175.507  0.00  0.00    -0.646 OA
ATOM     54  O61 IDS d 504     -12.713  45.955 173.487  0.00  0.00    -0.646 OA
ENDBRANCH   6  52
BRANCH   5  55
ATOM     55  O2  IDS d 504     -13.100  51.216 174.296  0.00  0.00    -0.244 OA
BRANCH  55  56
ATOM     56  S   IDS d 504     -12.330  52.475 174.734  0.00  0.00     0.252 S 
ATOM     57  O2S IDS d 504     -13.112  53.615 174.353  0.00  0.00    -0.572 OA
ATOM     58  O3S IDS d 504     -12.171  52.301 176.129  0.00  0.00    -0.572 OA
ATOM     59  O1S IDS d 504     -11.088  52.442 174.051  0.00  0.00    -0.572 OA
ENDBRANCH  55  56
ENDBRANCH   5  55
BRANCH   3  60
ATOM     60  O4  SGN d 503     -15.902  49.060 174.783  0.00  0.00    -0.348 OA
BRANCH  60  61
ATOM     61  C4  SGN d 503     -16.976  48.979 173.904  0.00  0.00     0.186 C 
ATOM     62  C5  SGN d 503     -18.268  49.303 174.674  0.00  0.00     0.181 C 
ATOM     63  O5  SGN d 503     -19.389  49.133 173.864  0.00  0.00    -0.349 OA
ATOM     64  C1  SGN d 503     -19.551  47.814 173.404  0.00  0.00     0.282 C 
ATOM     65  C2  SGN d 503     -18.331  47.411 172.563  0.00  0.00     0.157 C 
ATOM     66  C3  SGN d 503     -17.039  47.560 173.345  0.00  0.00     0.173 C 
BRANCH  62  67
ATOM     67  C6  SGN d 503     -18.364  50.724 175.159  0.00  0.00     0.227 C 
BRANCH  67  68
ATOM     68  O6  SGN d 503     -17.933  50.744 176.503  0.00  0.00    -0.254 OA
BRANCH  68  69
ATOM     69  S2  SGN d 503     -17.287  51.956 177.226  0.00  0.00     0.251 S 
ATOM     70  O6S SGN d 503     -16.311  51.368 178.058  0.00  0.00    -0.572 OA
ATOM     71  O4S SGN d 503     -16.662  52.780 176.247  0.00  0.00    -0.572 OA
ATOM     72  O5S SGN d 503     -18.358  52.657 177.927  0.00  0.00    -0.572 OA
ENDBRANCH  68  69
ENDBRANCH  67  68
ENDBRANCH  62  67
BRANCH  64  73
ATOM     73  O4  IDS d 502     -19.745  46.921 174.467  0.00  0.00    -0.348 OA
BRANCH  73  74
ATOM     74  C4  IDS d 502     -21.050  46.897 174.985  0.00  0.00     0.195 C 
ATOM     75  C3  IDS d 502     -21.850  45.764 174.317  0.00  0.00     0.185 C 
ATOM     76  C2  IDS d 502     -21.343  44.392 174.773  0.00  0.00     0.231 C 
ATOM     77  C1  IDS d 502     -21.197  44.315 176.290  0.00  0.00     0.291 C 
ATOM     78  O5  IDS d 502     -20.453  45.399 176.787  0.00  0.00    -0.340 OA
ATOM     79  C5  IDS d 502     -20.993  46.672 176.495  0.00  0.00     0.257 C 
BRANCH  75  80
ATOM     80  O3  IDS d 502     -23.209  45.876 174.695  0.00  0.00    -0.390 OA
ATOM     81  H   IDS d 502     -23.565  46.717 174.370  0.00  0.00     0.210 HD
ENDBRANCH  75  80
BRANCH  76  82
ATOM     82  O2  IDS d 502     -20.075  44.207 174.204  0.00  0.00    -0.244 OA
BRANCH  82  83
ATOM     83  S   IDS d 502     -19.624  43.082 173.215  0.00  0.00     0.252 S 
ATOM     84  O3S IDS d 502     -18.216  43.310 173.016  0.00  0.00    -0.572 OA
ATOM     85  O2S IDS d 502     -20.418  43.265 172.022  0.00  0.00    -0.572 OA
ATOM     86  O1S IDS d 502     -19.883  41.823 173.855  0.00  0.00    -0.572 OA
ENDBRANCH  82  83
ENDBRANCH  76  82
BRANCH  77  87
ATOM     87  O1  IDS d 502     -22.484  44.244 176.844  0.00  0.00    -0.368 OA
ATOM     88  H   IDS d 502     -22.504  44.740 177.678  0.00  0.00     0.212 HD
ENDBRANCH  77  87
BRANCH  79  89
ATOM     89  C6  IDS d 502     -20.252  47.760 177.261  0.00  0.00     0.206 C 
ATOM     90  O61 IDS d 502     -20.786  48.806 177.538  0.00  0.00    -0.646 OA
ATOM     91  O62 IDS d 502     -19.101  47.600 177.618  0.00  0.00    -0.646 OA
ENDBRANCH  79  89
ENDBRANCH  73  74
ENDBRANCH  64  73
BRANCH  65  92
ATOM     92  N   SGN d 503     -18.489  46.060 172.054  0.00  0.00    -0.210 NA
ATOM     93  H   SGN d 503     -19.177  45.590 172.642  0.00  0.00     0.140 HD
BRANCH  92  94
ATOM     94  S1  SGN d 503     -18.972  45.889 170.510  0.00  0.00     0.156 S 
BRANCH  94  95
ATOM     95  O2S SGN d 503     -18.426  47.003 169.735  0.00  0.00    -0.296 OA
ATOM     96  H   SGN d 503     -19.070  47.729 169.716  0.00  0.00     0.231 HD
ENDBRANCH  94  95
BRANCH  94  97
ATOM     97  O1S SGN d 503     -20.422  45.902 170.535  0.00  0.00    -0.296 OA
ATOM     98  H   SGN d 503     -20.763  45.645 169.664  0.00  0.00     0.231 HD
ENDBRANCH  94  97
BRANCH  94  99
ATOM     99  O3S SGN d 503     -18.436  44.599 170.136  0.00  0.00    -0.296 OA
ATOM    100  H   SGN d 503     -19.165  44.001 169.907  0.00  0.00     0.231 HD
ENDBRANCH  94  99
ENDBRANCH  92  94
ENDBRANCH  65  92
BRANCH  66 101
ATOM    101  O3  SGN d 503     -15.931  47.376 172.484  0.00  0.00    -0.391 OA
ATOM    102  H   SGN d 503     -15.881  48.116 171.859  0.00  0.00     0.210 HD
ENDBRANCH  66 101
ENDBRANCH  60  61
ENDBRANCH   3  60
TORSDOF 40
ENDMDL
MODEL 66
REMARK VINA RESULT:      -2.4      2.758      4.276
REMARK WARNING: 32 MAX_TORS EXCEEDED!!!
REMARK  40 active torsions:
REMARK  status: ('A' for Active; 'I' for Inactive)
REMARK    1 I    between atoms: C6_1  and  C5_8 
REMARK    2 I    between atoms: C6_1  and  O6_57 
REMARK    3 I    between atoms: O4_2  and  C4_49 
REMARK    4 I    between atoms: O6_3  and  C6_7 
REMARK    5 I    between atoms: O6_3  and  S2_58 
REMARK    6 I    between atoms: S_4  and  O2_6 
REMARK    7 I    between atoms: O3_5  and  C3_81 
REMARK    8 I    between atoms: O2_6  and  C2_11 
REMARK    9 I    between atoms: C6_7  and  C5_54 
REMARK   10 I    between atoms: O4_9  and  C4_32 
REMARK   11 I    between atoms: O4_9  and  C1_39 
REMARK   12 I    between atoms: O3_12  and  C3_18 
REMARK   13 I    between atoms: N_13  and  C2_52 
REMARK   14 I    between atoms: N_13  and  S1_45 
REMARK   15 I    between atoms: O3_17  and  C3_83 
REMARK   16 I    between atoms: C4_20  and  O4_44 
REMARK   17 I    between atoms: N_21  and  C2_66 
REMARK   18 I    between atoms: N_21  and  S1_53 
REMARK   19 I    between atoms: O3_22  and  C3_65 
REMARK   20 I    between atoms: C4_23  and  O4_74 
REMARK   21 I    between atoms: C1_25  and  O1_72 
REMARK   22 I    between atoms: C2_28  and  O2_69 
REMARK   23 I    between atoms: C4_33  and  O4_61 
REMARK   24 I    between atoms: O2S_34  and  S1_45 
REMARK   25 I    between atoms: C6_37  and  C5_47 
REMARK   26 I    between atoms: O2_38  and  C2_77 
REMARK   27 I    between atoms: O2_38  and  S_50 
REMARK   28 I    between atoms: O3S_40  and  S1_53 
REMARK   29 I    between atoms: O1S_42  and  S1_45 
REMARK   30 I    between atoms: O1S_43  and  S1_53 
REMARK   31 I    between atoms: O4_44  and  C1_46 
REMARK   32 I    between atoms: S1_45  and  O3S_60 
REMARK   33 I    between atoms: C6_48  and  C5_84 
REMARK   34 I    between atoms: C6_51  and  C5_87 
REMARK   35 I    between atoms: S1_53  and  O2S_55 
REMARK   36 I    between atoms: C1_56  and  O4_74 
REMARK   37 I    between atoms: O6_57  and  S2_82 
REMARK   38 I    between atoms: O4_61  and  C1_70 
REMARK   39 I    between atoms: C3_63  and  O3_79 
REMARK   40 I    between atoms: O2_69  and  S_76 
ROOT
ATOM      1  C3  IDS d 504     -15.902  46.285 175.699  0.00  0.00     0.185 C 
ATOM      2  C4  IDS d 504     -15.360  46.015 174.303  0.00  0.00     0.195 C 
ATOM      3  C1  IDS d 504     -16.045  48.763 175.028  0.00  0.00     0.294 C 
ATOM      4  O5  IDS d 504     -15.500  48.358 173.769  0.00  0.00    -0.340 OA
ATOM      5  C2  IDS d 504     -15.684  47.786 176.130  0.00  0.00     0.231 C 
ATOM      6  C5  IDS d 504     -15.904  47.075 173.347  0.00  0.00     0.257 C 
ENDROOT
BRANCH   2   7
ATOM      7  O4  IDS d 504     -13.942  46.064 174.332  0.00  0.00    -0.348 OA
BRANCH   7   8
ATOM      8  C1  SGN d 505     -13.328  44.813 174.183  0.00  0.00     0.282 C 
ATOM      9  O5  SGN d 505     -13.220  44.480 172.828  0.00  0.00    -0.349 OA
ATOM     10  C5  SGN d 505     -12.389  45.335 172.105  0.00  0.00     0.181 C 
ATOM     11  C4  SGN d 505     -10.981  45.231 172.595  0.00  0.00     0.186 C 
ATOM     12  C3  SGN d 505     -10.986  45.725 174.070  0.00  0.00     0.173 C 
ATOM     13  C2  SGN d 505     -11.952  44.788 174.820  0.00  0.00     0.157 C 
BRANCH  10  14
ATOM     14  C6  SGN d 505     -12.534  44.945 170.669  0.00  0.00     0.227 C 
BRANCH  14  15
ATOM     15  O6  SGN d 505     -12.914  43.612 170.692  0.00  0.00    -0.254 OA
BRANCH  15  16
ATOM     16  S2  SGN d 505     -12.073  42.407 170.294  0.00  0.00     0.251 S 
ATOM     17  O5S SGN d 505     -13.030  41.438 169.822  0.00  0.00    -0.572 OA
ATOM     18  O4S SGN d 505     -11.382  42.026 171.505  0.00  0.00    -0.572 OA
ATOM     19  O6S SGN d 505     -11.166  42.852 169.245  0.00  0.00    -0.572 OA
ENDBRANCH  15  16
ENDBRANCH  14  15
ENDBRANCH  10  14
BRANCH  11  20
ATOM     20  O4  SGN d 505     -10.204  45.997 171.698  0.00  0.00    -0.348 OA
BRANCH  20  21
ATOM     21  C1  IDS d 506      -8.899  45.680 171.351  0.00  0.00     0.294 C 
ATOM     22  C2  IDS d 506      -8.355  46.770 170.416  0.00  0.00     0.231 C 
ATOM     23  C3  IDS d 506      -7.040  46.363 169.696  0.00  0.00     0.185 C 
ATOM     24  C4  IDS d 506      -6.996  44.878 169.277  0.00  0.00     0.189 C 
ATOM     25  C5  IDS d 506      -7.644  43.992 170.346  0.00  0.00     0.256 C 
ATOM     26  O5  IDS d 506      -8.916  44.463 170.649  0.00  0.00    -0.340 OA
BRANCH  22  27
ATOM     27  O2  IDS d 506      -9.302  47.061 169.406  0.00  0.00    -0.244 OA
BRANCH  27  28
ATOM     28  S   IDS d 506      -9.753  48.484 168.862  0.00  0.00     0.252 S 
ATOM     29  O1S IDS d 506     -10.074  49.245 170.031  0.00  0.00    -0.572 OA
ATOM     30  O2S IDS d 506      -8.646  49.064 168.156  0.00  0.00    -0.572 OA
ATOM     31  O3S IDS d 506     -10.899  48.229 168.016  0.00  0.00    -0.572 OA
ENDBRANCH  27  28
ENDBRANCH  22  27
BRANCH  23  32
ATOM     32  O3  IDS d 506      -5.946  46.619 170.572  0.00  0.00    -0.390 OA
ATOM     33  H   IDS d 506      -5.917  47.565 170.785  0.00  0.00     0.210 HD
ENDBRANCH  23  32
BRANCH  24  34
ATOM     34  O4  IDS d 506      -7.710  44.763 168.068  0.00  0.00    -0.390 OA
ATOM     35  H   IDS d 506      -8.176  45.594 167.887  0.00  0.00     0.210 HD
ENDBRANCH  24  34
BRANCH  25  36
ATOM     36  C6  IDS d 506      -7.715  42.507 170.046  0.00  0.00     0.206 C 
ATOM     37  O62 IDS d 506      -7.975  41.685 170.908  0.00  0.00    -0.646 OA
ATOM     38  O61 IDS d 506      -7.524  42.103 168.908  0.00  0.00    -0.646 OA
ENDBRANCH  25  36
ENDBRANCH  20  21
ENDBRANCH  11  20
BRANCH  12  39
ATOM     39  O3  SGN d 505      -9.692  45.593 174.645  0.00  0.00    -0.391 OA
ATOM     40  H   SGN d 505      -9.239  44.830 174.251  0.00  0.00     0.210 HD
ENDBRANCH  12  39
BRANCH  13  41
ATOM     41  N   SGN d 505     -12.081  45.041 176.274  0.00  0.00    -0.210 NA
ATOM     42  H   SGN d 505     -12.832  45.720 176.401  0.00  0.00     0.140 HD
BRANCH  41  43
ATOM     43  S1  SGN d 505     -12.419  43.730 177.262  0.00  0.00     0.156 S 
BRANCH  43  44
ATOM     44  O3S SGN d 505     -12.032  42.565 176.549  0.00  0.00    -0.296 OA
ATOM     45  H   SGN d 505     -12.105  41.792 177.130  0.00  0.00     0.231 HD
ENDBRANCH  43  44
BRANCH  43  46
ATOM     46  O1S SGN d 505     -11.683  43.910 178.495  0.00  0.00    -0.296 OA
ATOM     47  H   SGN d 505     -12.019  43.295 179.165  0.00  0.00     0.231 HD
ENDBRANCH  43  46
BRANCH  43  48
ATOM     48  O2S SGN d 505     -13.849  43.774 177.461  0.00  0.00    -0.296 OA
ATOM     49  H   SGN d 505     -14.255  44.326 176.775  0.00  0.00     0.231 HD
ENDBRANCH  43  48
ENDBRANCH  41  43
ENDBRANCH  13  41
ENDBRANCH   7   8
ENDBRANCH   2   7
BRANCH   1  50
ATOM     50  O3  IDS d 504     -17.293  45.994 175.671  0.00  0.00    -0.390 OA
ATOM     51  H   IDS d 504     -17.751  46.656 175.129  0.00  0.00     0.210 HD
ENDBRANCH   1  50
BRANCH   6  52
ATOM     52  C6  IDS d 504     -15.552  46.859 171.866  0.00  0.00     0.206 C 
ATOM     53  O62 IDS d 504     -15.802  45.793 171.300  0.00  0.00    -0.646 OA
ATOM     54  O61 IDS d 504     -14.997  47.737 171.217  0.00  0.00    -0.646 OA
ENDBRANCH   6  52
BRANCH   5  55
ATOM     55  O2  IDS d 504     -14.323  48.007 176.496  0.00  0.00    -0.244 OA
BRANCH  55  56
ATOM     56  S   IDS d 504     -13.742  47.997 177.922  0.00  0.00     0.252 S 
ATOM     57  O2S IDS d 504     -13.437  46.637 178.256  0.00  0.00    -0.572 OA
ATOM     58  O3S IDS d 504     -12.619  48.853 177.830  0.00  0.00    -0.572 OA
ATOM     59  O1S IDS d 504     -14.746  48.531 178.768  0.00  0.00    -0.572 OA
ENDBRANCH  55  56
ENDBRANCH   5  55
BRANCH   3  60
ATOM     60  O4  SGN d 503     -17.437  48.891 174.994  0.00  0.00    -0.348 OA
BRANCH  60  61
ATOM     61  C4  SGN d 503     -17.881  50.108 174.488  0.00  0.00     0.186 C 
ATOM     62  C5  SGN d 503     -18.781  50.780 175.539  0.00  0.00     0.181 C 
ATOM     63  O5  SGN d 503     -19.340  51.956 175.041  0.00  0.00    -0.349 OA
ATOM     64  C1  SGN d 503     -20.165  51.751 173.921  0.00  0.00     0.282 C 
ATOM     65  C2  SGN d 503     -19.339  51.135 172.782  0.00  0.00     0.157 C 
ATOM     66  C3  SGN d 503     -18.673  49.841 173.210  0.00  0.00     0.173 C 
BRANCH  62  67
ATOM     67  C6  SGN d 503     -18.065  51.202 176.793  0.00  0.00     0.227 C 
BRANCH  67  68
ATOM     68  O6  SGN d 503     -16.881  51.864 176.404  0.00  0.00    -0.254 OA
BRANCH  68  69
ATOM     69  S2  SGN d 503     -15.638  52.094 177.304  0.00  0.00     0.251 S 
ATOM     70  O6S SGN d 503     -15.509  53.498 177.346  0.00  0.00    -0.572 OA
ATOM     71  O4S SGN d 503     -15.927  51.590 178.603  0.00  0.00    -0.572 OA
ATOM     72  O5S SGN d 503     -14.523  51.388 176.680  0.00  0.00    -0.572 OA
ENDBRANCH  68  69
ENDBRANCH  67  68
ENDBRANCH  62  67
BRANCH  64  73
ATOM     73  O4  IDS d 502     -21.266  50.943 174.236  0.00  0.00    -0.348 OA
BRANCH  73  74
ATOM     74  C4  IDS d 502     -22.034  51.393 175.321  0.00  0.00     0.195 C 
ATOM     75  C3  IDS d 502     -22.709  52.730 174.958  0.00  0.00     0.185 C 
ATOM     76  C2  IDS d 502     -23.803  52.524 173.907  0.00  0.00     0.231 C 
ATOM     77  C1  IDS d 502     -24.735  51.373 174.273  0.00  0.00     0.291 C 
ATOM     78  O5  IDS d 502     -24.012  50.210 174.587  0.00  0.00    -0.340 OA
ATOM     79  C5  IDS d 502     -23.098  50.350 175.657  0.00  0.00     0.257 C 
BRANCH  75  80
ATOM     80  O3  IDS d 502     -23.311  53.270 176.118  0.00  0.00    -0.390 OA
ATOM     81  H   IDS d 502     -24.048  53.846 175.861  0.00  0.00     0.210 HD
ENDBRANCH  75  80
BRANCH  76  82
ATOM     82  O2  IDS d 502     -23.165  52.200 172.700  0.00  0.00    -0.244 OA
BRANCH  82  83
ATOM     83  S   IDS d 502     -23.106  53.051 171.389  0.00  0.00     0.252 S 
ATOM     84  O3S IDS d 502     -23.608  52.178 170.361  0.00  0.00    -0.572 OA
ATOM     85  O2S IDS d 502     -21.718  53.416 171.219  0.00  0.00    -0.572 OA
ATOM     86  O1S IDS d 502     -23.951  54.196 171.586  0.00  0.00    -0.572 OA
ENDBRANCH  82  83
ENDBRANCH  76  82
BRANCH  77  87
ATOM     87  O1  IDS d 502     -25.554  51.801 175.329  0.00  0.00    -0.368 OA
ATOM     88  H   IDS d 502     -25.650  51.083 175.975  0.00  0.00     0.212 HD
ENDBRANCH  77  87
BRANCH  79  89
ATOM     89  C6  IDS d 502     -22.537  48.996 176.067  0.00  0.00     0.206 C 
ATOM     90  O61 IDS d 502     -22.112  48.804 177.180  0.00  0.00    -0.646 OA
ATOM     91  O62 IDS d 502     -22.508  48.067 175.283  0.00  0.00    -0.646 OA
ENDBRANCH  79  89
ENDBRANCH  73  74
ENDBRANCH  64  73
BRANCH  65  92
ATOM     92  N   SGN d 503     -20.166  50.941 171.603  0.00  0.00    -0.210 NA
ATOM     93  H   SGN d 503     -19.572  51.085 170.787  0.00  0.00     0.140 HD
BRANCH  92  94
ATOM     94  S1  SGN d 503     -20.895  49.497 171.425  0.00  0.00     0.156 S 
BRANCH  94  95
ATOM     95  O2S SGN d 503     -22.300  49.733 171.094  0.00  0.00    -0.296 OA
ATOM     96  H   SGN d 503     -22.833  48.982 171.397  0.00  0.00     0.231 HD
ENDBRANCH  94  95
BRANCH  94  97
ATOM     97  O1S SGN d 503     -20.742  48.807 172.692  0.00  0.00    -0.296 OA
ATOM     98  H   SGN d 503     -20.462  47.893 172.530  0.00  0.00     0.231 HD
ENDBRANCH  94  97
BRANCH  94  99
ATOM     99  O3S SGN d 503     -20.140  48.874 170.361  0.00  0.00    -0.296 OA
ATOM    100  H   SGN d 503     -20.705  48.241 169.892  0.00  0.00     0.231 HD
ENDBRANCH  94  99
ENDBRANCH  92  94
ENDBRANCH  65  92
BRANCH  66 101
ATOM    101  O3  SGN d 503     -17.767  49.412 172.212  0.00  0.00    -0.391 OA
ATOM    102  H   SGN d 503     -17.684  50.100 171.533  0.00  0.00     0.210 HD
ENDBRANCH  66 101
ENDBRANCH  60  61
ENDBRANCH   3  60
TORSDOF 40
ENDMDL
MODEL 67
REMARK VINA RESULT:      -2.3      5.004      6.990
REMARK WARNING: 32 MAX_TORS EXCEEDED!!!
REMARK  40 active torsions:
REMARK  status: ('A' for Active; 'I' for Inactive)
REMARK    1 I    between atoms: C6_1  and  C5_8 
REMARK    2 I    between atoms: C6_1  and  O6_57 
REMARK    3 I    between atoms: O4_2  and  C4_49 
REMARK    4 I    between atoms: O6_3  and  C6_7 
REMARK    5 I    between atoms: O6_3  and  S2_58 
REMARK    6 I    between atoms: S_4  and  O2_6 
REMARK    7 I    between atoms: O3_5  and  C3_81 
REMARK    8 I    between atoms: O2_6  and  C2_11 
REMARK    9 I    between atoms: C6_7  and  C5_54 
REMARK   10 I    between atoms: O4_9  and  C4_32 
REMARK   11 I    between atoms: O4_9  and  C1_39 
REMARK   12 I    between atoms: O3_12  and  C3_18 
REMARK   13 I    between atoms: N_13  and  C2_52 
REMARK   14 I    between atoms: N_13  and  S1_45 
REMARK   15 I    between atoms: O3_17  and  C3_83 
REMARK   16 I    between atoms: C4_20  and  O4_44 
REMARK   17 I    between atoms: N_21  and  C2_66 
REMARK   18 I    between atoms: N_21  and  S1_53 
REMARK   19 I    between atoms: O3_22  and  C3_65 
REMARK   20 I    between atoms: C4_23  and  O4_74 
REMARK   21 I    between atoms: C1_25  and  O1_72 
REMARK   22 I    between atoms: C2_28  and  O2_69 
REMARK   23 I    between atoms: C4_33  and  O4_61 
REMARK   24 I    between atoms: O2S_34  and  S1_45 
REMARK   25 I    between atoms: C6_37  and  C5_47 
REMARK   26 I    between atoms: O2_38  and  C2_77 
REMARK   27 I    between atoms: O2_38  and  S_50 
REMARK   28 I    between atoms: O3S_40  and  S1_53 
REMARK   29 I    between atoms: O1S_42  and  S1_45 
REMARK   30 I    between atoms: O1S_43  and  S1_53 
REMARK   31 I    between atoms: O4_44  and  C1_46 
REMARK   32 I    between atoms: S1_45  and  O3S_60 
REMARK   33 I    between atoms: C6_48  and  C5_84 
REMARK   34 I    between atoms: C6_51  and  C5_87 
REMARK   35 I    between atoms: S1_53  and  O2S_55 
REMARK   36 I    between atoms: C1_56  and  O4_74 
REMARK   37 I    between atoms: O6_57  and  S2_82 
REMARK   38 I    between atoms: O4_61  and  C1_70 
REMARK   39 I    between atoms: C3_63  and  O3_79 
REMARK   40 I    between atoms: O2_69  and  S_76 
ROOT
ATOM      1  C3  IDS d 504     -16.448  47.001 175.164  0.00  0.00     0.185 C 
ATOM      2  C4  IDS d 504     -15.465  47.069 174.006  0.00  0.00     0.195 C 
ATOM      3  C1  IDS d 504     -18.032  48.444 173.743  0.00  0.00     0.294 C 
ATOM      4  O5  IDS d 504     -16.997  48.441 172.754  0.00  0.00    -0.340 OA
ATOM      5  C2  IDS d 504     -17.475  48.198 175.131  0.00  0.00     0.231 C 
ATOM      6  C5  IDS d 504     -16.245  47.250 172.705  0.00  0.00     0.257 C 
ENDROOT
BRANCH   2   7
ATOM      7  O4  IDS d 504     -14.582  48.163 174.203  0.00  0.00    -0.348 OA
BRANCH   7   8
ATOM      8  C1  SGN d 505     -13.521  47.885 175.076  0.00  0.00     0.282 C 
ATOM      9  O5  SGN d 505     -12.568  47.078 174.445  0.00  0.00    -0.349 OA
ATOM     10  C5  SGN d 505     -11.940  47.693 173.362  0.00  0.00     0.181 C 
ATOM     11  C4  SGN d 505     -11.142  48.869 173.821  0.00  0.00     0.186 C 
ATOM     12  C3  SGN d 505     -12.155  49.891 174.414  0.00  0.00     0.173 C 
ATOM     13  C2  SGN d 505     -12.859  49.156 175.571  0.00  0.00     0.157 C 
BRANCH  10  14
ATOM     14  C6  SGN d 505     -11.102  46.641 172.711  0.00  0.00     0.227 C 
BRANCH  14  15
ATOM     15  O6  SGN d 505     -12.000  45.820 172.047  0.00  0.00    -0.254 OA
BRANCH  15  16
ATOM     16  S2  SGN d 505     -11.693  44.526 171.308  0.00  0.00     0.251 S 
ATOM     17  O5S SGN d 505     -12.284  44.704 170.005  0.00  0.00    -0.572 OA
ATOM     18  O4S SGN d 505     -12.308  43.490 172.107  0.00  0.00    -0.572 OA
ATOM     19  O6S SGN d 505     -10.242  44.405 171.250  0.00  0.00    -0.572 OA
ENDBRANCH  15  16
ENDBRANCH  14  15
ENDBRANCH  10  14
BRANCH  11  20
ATOM     20  O4  SGN d 505     -10.421  49.311 172.690  0.00  0.00    -0.348 OA
BRANCH  20  21
ATOM     21  C1  IDS d 506      -9.193  49.951 172.764  0.00  0.00     0.294 C 
ATOM     22  C2  IDS d 506      -8.624  50.101 171.346  0.00  0.00     0.231 C 
ATOM     23  C3  IDS d 506      -7.120  50.491 171.325  0.00  0.00     0.185 C 
ATOM     24  C4  IDS d 506      -6.288  49.814 172.435  0.00  0.00     0.189 C 
ATOM     25  C5  IDS d 506      -7.087  49.733 173.739  0.00  0.00     0.256 C 
ATOM     26  O5  IDS d 506      -8.321  49.137 173.507  0.00  0.00    -0.340 OA
BRANCH  22  27
ATOM     27  O2  IDS d 506      -8.741  48.879 170.643  0.00  0.00    -0.244 OA
BRANCH  27  28
ATOM     28  S   IDS d 506      -9.643  48.555 169.376  0.00  0.00     0.252 S 
ATOM     29  O1S IDS d 506      -9.762  47.130 169.359  0.00  0.00    -0.572 OA
ATOM     30  O2S IDS d 506     -10.922  49.178 169.567  0.00  0.00    -0.572 OA
ATOM     31  O3S IDS d 506      -8.916  49.080 168.239  0.00  0.00    -0.572 OA
ENDBRANCH  27  28
ENDBRANCH  22  27
BRANCH  23  32
ATOM     32  O3  IDS d 506      -7.017  51.904 171.478  0.00  0.00    -0.390 OA
ATOM     33  H   IDS d 506      -6.627  52.288 170.677  0.00  0.00     0.210 HD
ENDBRANCH  23  32
BRANCH  24  34
ATOM     34  O4  IDS d 506      -5.972  48.516 171.989  0.00  0.00    -0.390 OA
ATOM     35  H   IDS d 506      -5.305  48.568 171.286  0.00  0.00     0.210 HD
ENDBRANCH  24  34
BRANCH  25  36
ATOM     36  C6  IDS d 506      -6.408  49.046 174.910  0.00  0.00     0.206 C 
ATOM     37  O62 IDS d 506      -5.478  49.558 175.508  0.00  0.00    -0.646 OA
ATOM     38  O61 IDS d 506      -6.803  47.952 175.289  0.00  0.00    -0.646 OA
ENDBRANCH  25  36
ENDBRANCH  20  21
ENDBRANCH  11  20
BRANCH  12  39
ATOM     39  O3  SGN d 505     -11.472  51.020 174.945  0.00  0.00    -0.391 OA
ATOM     40  H   SGN d 505     -10.644  50.731 175.360  0.00  0.00     0.210 HD
ENDBRANCH  12  39
BRANCH  13  41
ATOM     41  N   SGN d 505     -13.848  49.962 176.325  0.00  0.00    -0.210 NA
ATOM     42  H   SGN d 505     -14.763  49.789 175.910  0.00  0.00     0.140 HD
BRANCH  41  43
ATOM     43  S1  SGN d 505     -13.982  49.679 177.971  0.00  0.00     0.156 S 
BRANCH  43  44
ATOM     44  O3S SGN d 505     -12.751  49.114 178.396  0.00  0.00    -0.296 OA
ATOM     45  H   SGN d 505     -12.055  49.788 178.353  0.00  0.00     0.231 HD
ENDBRANCH  43  44
BRANCH  43  46
ATOM     46  O1S SGN d 505     -14.274  50.945 178.610  0.00  0.00    -0.296 OA
ATOM     47  H   SGN d 505     -13.619  51.604 178.335  0.00  0.00     0.231 HD
ENDBRANCH  43  46
BRANCH  43  48
ATOM     48  O2S SGN d 505     -15.067  48.734 178.099  0.00  0.00    -0.296 OA
ATOM     49  H   SGN d 505     -14.862  47.935 177.588  0.00  0.00     0.231 HD
ENDBRANCH  43  48
ENDBRANCH  41  43
ENDBRANCH  13  41
ENDBRANCH   7   8
ENDBRANCH   2   7
BRANCH   1  50
ATOM     50  O3  IDS d 504     -17.148  45.768 175.047  0.00  0.00    -0.390 OA
ATOM     51  H   IDS d 504     -17.660  45.610 175.856  0.00  0.00     0.210 HD
ENDBRANCH   1  50
BRANCH   6  52
ATOM     52  C6  IDS d 504     -15.396  47.203 171.423  0.00  0.00     0.206 C 
ATOM     53  O62 IDS d 504     -15.185  46.139 170.837  0.00  0.00    -0.646 OA
ATOM     54  O61 IDS d 504     -14.894  48.221 170.963  0.00  0.00    -0.646 OA
ENDBRANCH   6  52
BRANCH   5  55
ATOM     55  O2  IDS d 504     -16.855  49.399 175.585  0.00  0.00    -0.244 OA
BRANCH  55  56
ATOM     56  S   IDS d 504     -17.563  50.639 176.160  0.00  0.00     0.252 S 
ATOM     57  O2S IDS d 504     -16.780  51.113 177.263  0.00  0.00    -0.572 OA
ATOM     58  O3S IDS d 504     -17.636  51.523 175.058  0.00  0.00    -0.572 OA
ATOM     59  O1S IDS d 504     -18.847  50.208 176.579  0.00  0.00    -0.572 OA
ENDBRANCH  55  56
ENDBRANCH   5  55
BRANCH   3  60
ATOM     60  O4  SGN d 503     -19.018  47.486 173.489  0.00  0.00    -0.348 OA
BRANCH  60  61
ATOM     61  C4  SGN d 503     -20.202  48.012 172.986  0.00  0.00     0.186 C 
ATOM     62  C5  SGN d 503     -21.376  47.476 173.824  0.00  0.00     0.181 C 
ATOM     63  O5  SGN d 503     -22.598  47.889 173.297  0.00  0.00    -0.349 OA
ATOM     64  C1  SGN d 503     -22.829  47.420 171.992  0.00  0.00     0.282 C 
ATOM     65  C2  SGN d 503     -21.737  47.955 171.053  0.00  0.00     0.157 C 
ATOM     66  C3  SGN d 503     -20.350  47.569 171.532  0.00  0.00     0.173 C 
BRANCH  62  67
ATOM     67  C6  SGN d 503     -21.395  47.961 175.249  0.00  0.00     0.227 C 
BRANCH  67  68
ATOM     68  O6  SGN d 503     -21.541  46.831 176.081  0.00  0.00    -0.254 OA
BRANCH  68  69
ATOM     69  S2  SGN d 503     -20.450  46.254 177.021  0.00  0.00     0.251 S 
ATOM     70  O6S SGN d 503     -19.634  45.490 176.159  0.00  0.00    -0.572 OA
ATOM     71  O4S SGN d 503     -19.706  47.341 177.562  0.00  0.00    -0.572 OA
ATOM     72  O5S SGN d 503     -21.138  45.493 178.059  0.00  0.00    -0.572 OA
ENDBRANCH  68  69
ENDBRANCH  67  68
ENDBRANCH  62  67
BRANCH  64  73
ATOM     73  O4  IDS d 502     -22.882  46.020 171.952  0.00  0.00    -0.348 OA
BRANCH  73  74
ATOM     74  C4  IDS d 502     -23.880  45.446 172.755  0.00  0.00     0.195 C 
ATOM     75  C3  IDS d 502     -25.227  45.475 172.007  0.00  0.00     0.185 C 
ATOM     76  C2  IDS d 502     -25.220  44.498 170.828  0.00  0.00     0.231 C 
ATOM     77  C1  IDS d 502     -24.701  43.122 171.233  0.00  0.00     0.291 C 
ATOM     78  O5  IDS d 502     -23.472  43.218 171.909  0.00  0.00    -0.340 OA
ATOM     79  C5  IDS d 502     -23.501  44.004 173.084  0.00  0.00     0.257 C 
BRANCH  75  80
ATOM     80  O3  IDS d 502     -26.255  45.083 172.896  0.00  0.00    -0.390 OA
ATOM     81  H   IDS d 502     -26.823  44.427 172.463  0.00  0.00     0.210 HD
ENDBRANCH  75  80
BRANCH  76  82
ATOM     82  O2  IDS d 502     -24.353  45.021 169.858  0.00  0.00    -0.244 OA
BRANCH  82  83
ATOM     83  S   IDS d 502     -24.734  45.766 168.536  0.00  0.00     0.252 S 
ATOM     84  O3S IDS d 502     -23.574  45.634 167.693  0.00  0.00    -0.572 OA
ATOM     85  O2S IDS d 502     -25.023  47.128 168.920  0.00  0.00    -0.572 OA
ATOM     86  O1S IDS d 502     -25.881  45.099 167.986  0.00  0.00    -0.572 OA
ENDBRANCH  82  83
ENDBRANCH  76  82
BRANCH  77  87
ATOM     87  O1  IDS d 502     -25.692  42.496 172.003  0.00  0.00    -0.368 OA
ATOM     88  H   IDS d 502     -25.572  41.534 171.965  0.00  0.00     0.212 HD
ENDBRANCH  77  87
BRANCH  79  89
ATOM     89  C6  IDS d 502     -22.199  43.861 173.859  0.00  0.00     0.206 C 
ATOM     90  O61 IDS d 502     -21.129  43.903 173.300  0.00  0.00    -0.646 OA
ATOM     91  O62 IDS d 502     -22.201  43.707 175.065  0.00  0.00    -0.646 OA
ENDBRANCH  79  89
ENDBRANCH  73  74
ENDBRANCH  64  73
BRANCH  65  92
ATOM     92  N   SGN d 503     -21.972  47.506 169.692  0.00  0.00    -0.210 NA
ATOM     93  H   SGN d 503     -22.948  47.217 169.630  0.00  0.00     0.140 HD
BRANCH  92  94
ATOM     94  S1  SGN d 503     -21.702  48.570 168.491  0.00  0.00     0.156 S 
BRANCH  94  95
ATOM     95  O2S SGN d 503     -22.844  48.526 167.578  0.00  0.00    -0.296 OA
ATOM     96  H   SGN d 503     -22.573  48.859 166.707  0.00  0.00     0.231 HD
ENDBRANCH  94  95
BRANCH  94  97
ATOM     97  O1S SGN d 503     -20.473  48.149 167.846  0.00  0.00    -0.296 OA
ATOM     98  H   SGN d 503     -20.673  47.804 166.962  0.00  0.00     0.231 HD
ENDBRANCH  94  97
BRANCH  94  99
ATOM     99  O3S SGN d 503     -21.559  49.828 169.188  0.00  0.00    -0.296 OA
ATOM    100  H   SGN d 503     -20.841  49.758 169.836  0.00  0.00     0.231 HD
ENDBRANCH  94  99
ENDBRANCH  92  94
ENDBRANCH  65  92
BRANCH  66 101
ATOM    101  O3  SGN d 503     -19.371  48.244 170.765  0.00  0.00    -0.391 OA
ATOM    102  H   SGN d 503     -19.466  47.998 169.831  0.00  0.00     0.210 HD
ENDBRANCH  66 101
ENDBRANCH  60  61
ENDBRANCH   3  60
TORSDOF 40
ENDMDL
MODEL 68
REMARK VINA RESULT:      -2.3      4.789      8.232
REMARK WARNING: 32 MAX_TORS EXCEEDED!!!
REMARK  40 active torsions:
REMARK  status: ('A' for Active; 'I' for Inactive)
REMARK    1 I    between atoms: C6_1  and  C5_8 
REMARK    2 I    between atoms: C6_1  and  O6_57 
REMARK    3 I    between atoms: O4_2  and  C4_49 
REMARK    4 I    between atoms: O6_3  and  C6_7 
REMARK    5 I    between atoms: O6_3  and  S2_58 
REMARK    6 I    between atoms: S_4  and  O2_6 
REMARK    7 I    between atoms: O3_5  and  C3_81 
REMARK    8 I    between atoms: O2_6  and  C2_11 
REMARK    9 I    between atoms: C6_7  and  C5_54 
REMARK   10 I    between atoms: O4_9  and  C4_32 
REMARK   11 I    between atoms: O4_9  and  C1_39 
REMARK   12 I    between atoms: O3_12  and  C3_18 
REMARK   13 I    between atoms: N_13  and  C2_52 
REMARK   14 I    between atoms: N_13  and  S1_45 
REMARK   15 I    between atoms: O3_17  and  C3_83 
REMARK   16 I    between atoms: C4_20  and  O4_44 
REMARK   17 I    between atoms: N_21  and  C2_66 
REMARK   18 I    between atoms: N_21  and  S1_53 
REMARK   19 I    between atoms: O3_22  and  C3_65 
REMARK   20 I    between atoms: C4_23  and  O4_74 
REMARK   21 I    between atoms: C1_25  and  O1_72 
REMARK   22 I    between atoms: C2_28  and  O2_69 
REMARK   23 I    between atoms: C4_33  and  O4_61 
REMARK   24 I    between atoms: O2S_34  and  S1_45 
REMARK   25 I    between atoms: C6_37  and  C5_47 
REMARK   26 I    between atoms: O2_38  and  C2_77 
REMARK   27 I    between atoms: O2_38  and  S_50 
REMARK   28 I    between atoms: O3S_40  and  S1_53 
REMARK   29 I    between atoms: O1S_42  and  S1_45 
REMARK   30 I    between atoms: O1S_43  and  S1_53 
REMARK   31 I    between atoms: O4_44  and  C1_46 
REMARK   32 I    between atoms: S1_45  and  O3S_60 
REMARK   33 I    between atoms: C6_48  and  C5_84 
REMARK   34 I    between atoms: C6_51  and  C5_87 
REMARK   35 I    between atoms: S1_53  and  O2S_55 
REMARK   36 I    between atoms: C1_56  and  O4_74 
REMARK   37 I    between atoms: O6_57  and  S2_82 
REMARK   38 I    between atoms: O4_61  and  C1_70 
REMARK   39 I    between atoms: C3_63  and  O3_79 
REMARK   40 I    between atoms: O2_69  and  S_76 
ROOT
ATOM      1  C3  IDS d 504     -17.240  51.663 176.046  0.00  0.00     0.185 C 
ATOM      2  C4  IDS d 504     -15.903  50.962 175.866  0.00  0.00     0.195 C 
ATOM      3  C1  IDS d 504     -17.996  50.513 173.875  0.00  0.00     0.294 C 
ATOM      4  O5  IDS d 504     -16.681  49.948 173.826  0.00  0.00    -0.340 OA
ATOM      5  C2  IDS d 504     -18.020  51.795 174.681  0.00  0.00     0.231 C 
ATOM      6  C5  IDS d 504     -16.124  49.665 175.089  0.00  0.00     0.257 C 
ENDROOT
BRANCH   2   7
ATOM      7  O4  IDS d 504     -15.018  51.814 175.153  0.00  0.00    -0.348 OA
BRANCH   7   8
ATOM      8  C1  SGN d 505     -14.179  52.577 175.976  0.00  0.00     0.282 C 
ATOM      9  O5  SGN d 505     -13.039  51.843 176.325  0.00  0.00    -0.349 OA
ATOM     10  C5  SGN d 505     -12.223  51.523 175.240  0.00  0.00     0.181 C 
ATOM     11  C4  SGN d 505     -11.656  52.765 174.632  0.00  0.00     0.186 C 
ATOM     12  C3  SGN d 505     -12.862  53.582 174.083  0.00  0.00     0.173 C 
ATOM     13  C2  SGN d 505     -13.761  53.868 175.302  0.00  0.00     0.157 C 
BRANCH  10  14
ATOM     14  C6  SGN d 505     -11.170  50.602 175.765  0.00  0.00     0.227 C 
BRANCH  14  15
ATOM     15  O6  SGN d 505     -11.297  49.442 175.016  0.00  0.00    -0.254 OA
BRANCH  15  16
ATOM     16  S2  SGN d 505     -10.740  48.066 175.349  0.00  0.00     0.251 S 
ATOM     17  O5S SGN d 505     -11.254  47.207 174.311  0.00  0.00    -0.572 OA
ATOM     18  O4S SGN d 505     -11.243  47.774 176.672  0.00  0.00    -0.572 OA
ATOM     19  O6S SGN d 505      -9.288  48.177 175.311  0.00  0.00    -0.572 OA
ENDBRANCH  15  16
ENDBRANCH  14  15
ENDBRANCH  10  14
BRANCH  11  20
ATOM     20  O4  SGN d 505     -10.725  52.329 173.665  0.00  0.00    -0.348 OA
BRANCH  20  21
ATOM     21  C1  IDS d 506      -9.459  52.877 173.517  0.00  0.00     0.294 C 
ATOM     22  C2  IDS d 506      -8.665  52.030 172.512  0.00  0.00     0.231 C 
ATOM     23  C3  IDS d 506      -7.142  52.337 172.517  0.00  0.00     0.185 C 
ATOM     24  C4  IDS d 506      -6.571  52.624 173.922  0.00  0.00     0.189 C 
ATOM     25  C5  IDS d 506      -7.566  53.438 174.756  0.00  0.00     0.256 C 
ATOM     26  O5  IDS d 506      -8.808  52.814 174.760  0.00  0.00    -0.340 OA
BRANCH  22  27
ATOM     27  O2  IDS d 506      -8.807  50.656 172.814  0.00  0.00    -0.244 OA
BRANCH  27  28
ATOM     28  S   IDS d 506      -8.966  49.437 171.807  0.00  0.00     0.252 S 
ATOM     29  O1S IDS d 506      -8.542  49.946 170.539  0.00  0.00    -0.572 OA
ATOM     30  O2S IDS d 506      -8.107  48.376 172.250  0.00  0.00    -0.572 OA
ATOM     31  O3S IDS d 506     -10.370  49.088 171.840  0.00  0.00    -0.572 OA
ENDBRANCH  27  28
ENDBRANCH  22  27
BRANCH  23  32
ATOM     32  O3  IDS d 506      -6.907  53.474 171.691  0.00  0.00    -0.390 OA
ATOM     33  H   IDS d 506      -7.316  54.256 172.093  0.00  0.00     0.210 HD
ENDBRANCH  23  32
BRANCH  24  34
ATOM     34  O4  IDS d 506      -6.337  51.381 174.541  0.00  0.00    -0.390 OA
ATOM     35  H   IDS d 506      -5.550  50.968 174.151  0.00  0.00     0.210 HD
ENDBRANCH  24  34
BRANCH  25  36
ATOM     36  C6  IDS d 506      -7.157  53.755 176.182  0.00  0.00     0.206 C 
ATOM     37  O62 IDS d 506      -7.194  52.917 177.067  0.00  0.00    -0.646 OA
ATOM     38  O61 IDS d 506      -6.760  54.876 176.470  0.00  0.00    -0.646 OA
ENDBRANCH  25  36
ENDBRANCH  20  21
ENDBRANCH  11  20
BRANCH  12  39
ATOM     39  O3  SGN d 505     -12.421  54.822 173.546  0.00  0.00    -0.391 OA
ATOM     40  H   SGN d 505     -11.515  54.726 173.211  0.00  0.00     0.210 HD
ENDBRANCH  12  39
BRANCH  13  41
ATOM     41  N   SGN d 505     -14.963  54.687 175.024  0.00  0.00    -0.210 NA
ATOM     42  H   SGN d 505     -15.772  54.170 175.368  0.00  0.00     0.140 HD
BRANCH  41  43
ATOM     43  S1  SGN d 505     -15.027  56.222 175.695  0.00  0.00     0.156 S 
BRANCH  43  44
ATOM     44  O3S SGN d 505     -13.874  56.918 175.247  0.00  0.00    -0.296 OA
ATOM     45  H   SGN d 505     -14.143  57.733 174.796  0.00  0.00     0.231 HD
ENDBRANCH  43  44
BRANCH  43  46
ATOM     46  O1S SGN d 505     -16.264  56.838 175.263  0.00  0.00    -0.296 OA
ATOM     47  H   SGN d 505     -16.391  56.676 174.315  0.00  0.00     0.231 HD
ENDBRANCH  43  46
BRANCH  43  48
ATOM     48  O2S SGN d 505     -14.989  56.005 177.123  0.00  0.00    -0.296 OA
ATOM     49  H   SGN d 505     -14.278  56.537 177.512  0.00  0.00     0.231 HD
ENDBRANCH  43  48
ENDBRANCH  41  43
ENDBRANCH  13  41
ENDBRANCH   7   8
ENDBRANCH   2   7
BRANCH   1  50
ATOM     50  O3  IDS d 504     -18.003  50.882 176.957  0.00  0.00    -0.390 OA
ATOM     51  H   IDS d 504     -17.921  51.254 177.849  0.00  0.00     0.210 HD
ENDBRANCH   1  50
BRANCH   6  52
ATOM     52  C6  IDS d 504     -14.881  48.773 174.941  0.00  0.00     0.206 C 
ATOM     53  O62 IDS d 504     -14.405  48.523 173.832  0.00  0.00    -0.646 OA
ATOM     54  O61 IDS d 504     -14.343  48.274 175.921  0.00  0.00    -0.646 OA
ENDBRANCH   6  52
BRANCH   5  55
ATOM     55  O2  IDS d 504     -17.458  52.836 173.885  0.00  0.00    -0.244 OA
BRANCH  55  56
ATOM     56  S   IDS d 504     -18.057  54.233 173.641  0.00  0.00     0.252 S 
ATOM     57  O2S IDS d 504     -17.100  54.991 172.890  0.00  0.00    -0.572 OA
ATOM     58  O3S IDS d 504     -19.268  53.963 172.960  0.00  0.00    -0.572 OA
ATOM     59  O1S IDS d 504     -18.284  54.800 174.920  0.00  0.00    -0.572 OA
ENDBRANCH  55  56
ENDBRANCH   5  55
BRANCH   3  60
ATOM     60  O4  SGN d 503     -18.937  49.633 174.419  0.00  0.00    -0.348 OA
BRANCH  60  61
ATOM     61  C4  SGN d 503     -19.596  48.853 173.475  0.00  0.00     0.186 C 
ATOM     62  C5  SGN d 503     -21.112  48.985 173.698  0.00  0.00     0.181 C 
ATOM     63  O5  SGN d 503     -21.819  48.139 172.845  0.00  0.00    -0.349 OA
ATOM     64  C1  SGN d 503     -21.531  46.778 173.045  0.00  0.00     0.282 C 
ATOM     65  C2  SGN d 503     -20.039  46.526 172.783  0.00  0.00     0.157 C 
ATOM     66  C3  SGN d 503     -19.161  47.401 173.659  0.00  0.00     0.173 C 
BRANCH  62  67
ATOM     67  C6  SGN d 503     -21.666  50.356 173.417  0.00  0.00     0.227 C 
BRANCH  67  68
ATOM     68  O6  SGN d 503     -21.593  51.097 174.616  0.00  0.00    -0.254 OA
BRANCH  68  69
ATOM     69  S2  SGN d 503     -22.206  52.504 174.845  0.00  0.00     0.251 S 
ATOM     70  O6S SGN d 503     -21.217  53.183 175.588  0.00  0.00    -0.572 OA
ATOM     71  O4S SGN d 503     -22.380  53.128 173.578  0.00  0.00    -0.572 OA
ATOM     72  O5S SGN d 503     -23.477  52.310 175.537  0.00  0.00    -0.572 OA
ENDBRANCH  68  69
ENDBRANCH  67  68
ENDBRANCH  62  67
BRANCH  64  73
ATOM     73  O4  IDS d 502     -21.891  46.361 174.333  0.00  0.00    -0.348 OA
BRANCH  73  74
ATOM     74  C4  IDS d 502     -23.198  45.860 174.446  0.00  0.00     0.195 C 
ATOM     75  C3  IDS d 502     -23.166  44.320 174.417  0.00  0.00     0.185 C 
ATOM     76  C2  IDS d 502     -22.541  43.760 175.698  0.00  0.00     0.231 C 
ATOM     77  C1  IDS d 502     -23.135  44.401 176.948  0.00  0.00     0.291 C 
ATOM     78  O5  IDS d 502     -23.115  45.804 176.862  0.00  0.00    -0.340 OA
ATOM     79  C5  IDS d 502     -23.815  46.341 175.757  0.00  0.00     0.257 C 
BRANCH  75  80
ATOM     80  O3  IDS d 502     -24.492  43.835 174.327  0.00  0.00    -0.390 OA
ATOM     81  H   IDS d 502     -24.510  43.048 173.760  0.00  0.00     0.210 HD
ENDBRANCH  75  80
BRANCH  76  82
ATOM     82  O2  IDS d 502     -21.173  44.066 175.661  0.00  0.00    -0.244 OA
BRANCH  82  83
ATOM     83  S   IDS d 502     -19.994  43.261 176.303  0.00  0.00     0.252 S 
ATOM     84  O3S IDS d 502     -19.039  43.096 175.238  0.00  0.00    -0.572 OA
ATOM     85  O2S IDS d 502     -20.571  42.020 176.766  0.00  0.00    -0.572 OA
ATOM     86  O1S IDS d 502     -19.472  44.056 177.379  0.00  0.00    -0.572 OA
ENDBRANCH  82  83
ENDBRANCH  76  82
BRANCH  77  87
ATOM     87  O1  IDS d 502     -24.431  43.890 177.120  0.00  0.00    -0.368 OA
ATOM     88  H   IDS d 502     -24.977  44.128 176.354  0.00  0.00     0.212 HD
ENDBRANCH  77  87
BRANCH  79  89
ATOM     89  C6  IDS d 502     -23.929  47.854 175.876  0.00  0.00     0.206 C 
ATOM     90  O61 IDS d 502     -24.500  48.507 175.037  0.00  0.00    -0.646 OA
ATOM     91  O62 IDS d 502     -23.450  48.446 176.824  0.00  0.00    -0.646 OA
ENDBRANCH  79  89
ENDBRANCH  73  74
ENDBRANCH  64  73
BRANCH  65  92
ATOM     92  N   SGN d 503     -19.723  45.118 172.955  0.00  0.00    -0.210 NA
ATOM     93  H   SGN d 503     -20.584  44.643 173.226  0.00  0.00     0.140 HD
BRANCH  92  94
ATOM     94  S1  SGN d 503     -19.109  44.322 171.676  0.00  0.00     0.156 S 
BRANCH  94  95
ATOM     95  O2S SGN d 503     -18.771  42.965 172.103  0.00  0.00    -0.296 OA
ATOM     96  H   SGN d 503     -18.519  42.974 173.039  0.00  0.00     0.231 HD
ENDBRANCH  94  95
BRANCH  94  97
ATOM     97  O1S SGN d 503     -17.938  45.069 171.258  0.00  0.00    -0.296 OA
ATOM     98  H   SGN d 503     -17.587  45.568 172.013  0.00  0.00     0.231 HD
ENDBRANCH  94  97
BRANCH  94  99
ATOM     99  O3S SGN d 503     -20.178  44.380 170.705  0.00  0.00    -0.296 OA
ATOM    100  H   SGN d 503     -20.061  43.672 170.053  0.00  0.00     0.231 HD
ENDBRANCH  94  99
ENDBRANCH  92  94
ENDBRANCH  65  92
BRANCH  66 101
ATOM    101  O3  SGN d 503     -17.811  47.290 173.251  0.00  0.00    -0.391 OA
ATOM    102  H   SGN d 503     -17.301  48.030 173.616  0.00  0.00     0.210 HD
ENDBRANCH  66 101
ENDBRANCH  60  61
ENDBRANCH   3  60
TORSDOF 40
ENDMDL
MODEL 69
REMARK VINA RESULT:      -2.3      2.886     12.638
REMARK WARNING: 32 MAX_TORS EXCEEDED!!!
REMARK  40 active torsions:
REMARK  status: ('A' for Active; 'I' for Inactive)
REMARK    1 I    between atoms: C6_1  and  C5_8 
REMARK    2 I    between atoms: C6_1  and  O6_57 
REMARK    3 I    between atoms: O4_2  and  C4_49 
REMARK    4 I    between atoms: O6_3  and  C6_7 
REMARK    5 I    between atoms: O6_3  and  S2_58 
REMARK    6 I    between atoms: S_4  and  O2_6 
REMARK    7 I    between atoms: O3_5  and  C3_81 
REMARK    8 I    between atoms: O2_6  and  C2_11 
REMARK    9 I    between atoms: C6_7  and  C5_54 
REMARK   10 I    between atoms: O4_9  and  C4_32 
REMARK   11 I    between atoms: O4_9  and  C1_39 
REMARK   12 I    between atoms: O3_12  and  C3_18 
REMARK   13 I    between atoms: N_13  and  C2_52 
REMARK   14 I    between atoms: N_13  and  S1_45 
REMARK   15 I    between atoms: O3_17  and  C3_83 
REMARK   16 I    between atoms: C4_20  and  O4_44 
REMARK   17 I    between atoms: N_21  and  C2_66 
REMARK   18 I    between atoms: N_21  and  S1_53 
REMARK   19 I    between atoms: O3_22  and  C3_65 
REMARK   20 I    between atoms: C4_23  and  O4_74 
REMARK   21 I    between atoms: C1_25  and  O1_72 
REMARK   22 I    between atoms: C2_28  and  O2_69 
REMARK   23 I    between atoms: C4_33  and  O4_61 
REMARK   24 I    between atoms: O2S_34  and  S1_45 
REMARK   25 I    between atoms: C6_37  and  C5_47 
REMARK   26 I    between atoms: O2_38  and  C2_77 
REMARK   27 I    between atoms: O2_38  and  S_50 
REMARK   28 I    between atoms: O3S_40  and  S1_53 
REMARK   29 I    between atoms: O1S_42  and  S1_45 
REMARK   30 I    between atoms: O1S_43  and  S1_53 
REMARK   31 I    between atoms: O4_44  and  C1_46 
REMARK   32 I    between atoms: S1_45  and  O3S_60 
REMARK   33 I    between atoms: C6_48  and  C5_84 
REMARK   34 I    between atoms: C6_51  and  C5_87 
REMARK   35 I    between atoms: S1_53  and  O2S_55 
REMARK   36 I    between atoms: C1_56  and  O4_74 
REMARK   37 I    between atoms: O6_57  and  S2_82 
REMARK   38 I    between atoms: O4_61  and  C1_70 
REMARK   39 I    between atoms: C3_63  and  O3_79 
REMARK   40 I    between atoms: O2_69  and  S_76 
ROOT
ATOM      1  C3  IDS d 504     -17.058  48.576 175.242  0.00  0.00     0.185 C 
ATOM      2  C4  IDS d 504     -16.431  49.961 175.203  0.00  0.00     0.195 C 
ATOM      3  C1  IDS d 504     -16.489  48.383 172.742  0.00  0.00     0.294 C 
ATOM      4  O5  IDS d 504     -15.961  49.709 172.855  0.00  0.00    -0.340 OA
ATOM      5  C2  IDS d 504     -17.526  48.105 173.811  0.00  0.00     0.231 C 
ATOM      6  C5  IDS d 504     -15.371  49.994 174.103  0.00  0.00     0.257 C 
ENDROOT
BRANCH   2   7
ATOM      7  O4  IDS d 504     -17.439  50.925 174.939  0.00  0.00    -0.348 OA
BRANCH   7   8
ATOM      8  C1  SGN d 505     -17.505  51.951 175.892  0.00  0.00     0.282 C 
ATOM      9  O5  SGN d 505     -16.756  53.057 175.472  0.00  0.00    -0.349 OA
ATOM     10  C5  SGN d 505     -17.246  53.660 174.314  0.00  0.00     0.181 C 
ATOM     11  C4  SGN d 505     -18.600  54.240 174.563  0.00  0.00     0.186 C 
ATOM     12  C3  SGN d 505     -19.541  53.047 174.900  0.00  0.00     0.173 C 
ATOM     13  C2  SGN d 505     -18.936  52.381 176.150  0.00  0.00     0.157 C 
BRANCH  10  14
ATOM     14  C6  SGN d 505     -16.238  54.689 173.919  0.00  0.00     0.227 C 
BRANCH  14  15
ATOM     15  O6  SGN d 505     -16.140  55.539 175.010  0.00  0.00    -0.254 OA
BRANCH  15  16
ATOM     16  S2  SGN d 505     -14.873  56.150 175.592  0.00  0.00     0.251 S 
ATOM     17  O5S SGN d 505     -14.936  57.540 175.217  0.00  0.00    -0.572 OA
ATOM     18  O4S SGN d 505     -13.794  55.411 174.977  0.00  0.00    -0.572 OA
ATOM     19  O6S SGN d 505     -14.935  55.958 177.035  0.00  0.00    -0.572 OA
ENDBRANCH  15  16
ENDBRANCH  14  15
ENDBRANCH  10  14
BRANCH  11  20
ATOM     20  O4  SGN d 505     -18.929  54.964 173.395  0.00  0.00    -0.348 OA
BRANCH  20  21
ATOM     21  C1  IDS d 506     -19.768  56.069 173.389  0.00  0.00     0.294 C 
ATOM     22  C2  IDS d 506     -19.826  56.640 171.965  0.00  0.00     0.231 C 
ATOM     23  C3  IDS d 506     -20.454  58.059 171.896  0.00  0.00     0.185 C 
ATOM     24  C4  IDS d 506     -20.074  58.964 173.088  0.00  0.00     0.189 C 
ATOM     25  C5  IDS d 506     -20.030  58.157 174.390  0.00  0.00     0.256 C 
ATOM     26  O5  IDS d 506     -19.213  57.044 174.234  0.00  0.00    -0.340 OA
BRANCH  22  27
ATOM     27  O2  IDS d 506     -18.522  56.742 171.428  0.00  0.00    -0.244 OA
BRANCH  27  28
ATOM     28  S   IDS d 506     -18.094  57.159 169.956  0.00  0.00     0.252 S 
ATOM     29  O1S IDS d 506     -18.954  56.411 169.092  0.00  0.00    -0.572 OA
ATOM     30  O2S IDS d 506     -18.315  58.570 169.809  0.00  0.00    -0.572 OA
ATOM     31  O3S IDS d 506     -16.701  56.784 169.837  0.00  0.00    -0.572 OA
ENDBRANCH  27  28
ENDBRANCH  22  27
BRANCH  23  32
ATOM     32  O3  IDS d 506     -21.872  57.926 171.863  0.00  0.00    -0.390 OA
ATOM     33  H   IDS d 506     -22.282  58.756 172.153  0.00  0.00     0.210 HD
ENDBRANCH  23  32
BRANCH  24  34
ATOM     34  O4  IDS d 506     -18.800  59.499 172.817  0.00  0.00    -0.390 OA
ATOM     35  H   IDS d 506     -18.891  60.289 172.260  0.00  0.00     0.210 HD
ENDBRANCH  24  34
BRANCH  25  36
ATOM     36  C6  IDS d 506     -19.622  58.911 175.642  0.00  0.00     0.206 C 
ATOM     37  O62 IDS d 506     -19.050  58.363 176.569  0.00  0.00    -0.646 OA
ATOM     38  O61 IDS d 506     -19.851  60.108 175.737  0.00  0.00    -0.646 OA
ENDBRANCH  25  36
ENDBRANCH  20  21
ENDBRANCH  11  20
BRANCH  12  39
ATOM     39  O3  SGN d 505     -20.844  53.515 175.223  0.00  0.00    -0.391 OA
ATOM     40  H   SGN d 505     -20.997  54.371 174.792  0.00  0.00     0.210 HD
ENDBRANCH  12  39
BRANCH  13  41
ATOM     41  N   SGN d 505     -19.702  51.232 176.690  0.00  0.00    -0.210 NA
ATOM     42  H   SGN d 505     -20.259  51.577 177.471  0.00  0.00     0.140 HD
BRANCH  41  43
ATOM     43  S1  SGN d 505     -20.741  50.436 175.644  0.00  0.00     0.156 S 
BRANCH  43  44
ATOM     44  O3S SGN d 505     -20.588  49.046 175.887  0.00  0.00    -0.296 OA
ATOM     45  H   SGN d 505     -21.106  48.545 175.237  0.00  0.00     0.231 HD
ENDBRANCH  43  44
BRANCH  43  46
ATOM     46  O1S SGN d 505     -22.082  50.912 175.913  0.00  0.00    -0.296 OA
ATOM     47  H   SGN d 505     -22.643  50.167 176.175  0.00  0.00     0.231 HD
ENDBRANCH  43  46
BRANCH  43  48
ATOM     48  O2S SGN d 505     -20.284  50.793 174.322  0.00  0.00    -0.296 OA
ATOM     49  H   SGN d 505     -19.426  50.375 174.152  0.00  0.00     0.231 HD
ENDBRANCH  43  48
ENDBRANCH  41  43
ENDBRANCH  13  41
ENDBRANCH   7   8
ENDBRANCH   2   7
BRANCH   1  50
ATOM     50  O3  IDS d 504     -16.068  47.683 175.737  0.00  0.00    -0.390 OA
ATOM     51  H   IDS d 504     -16.424  46.780 175.749  0.00  0.00     0.210 HD
ENDBRANCH   1  50
BRANCH   6  52
ATOM     52  C6  IDS d 504     -14.551  51.293 174.026  0.00  0.00     0.206 C 
ATOM     53  O62 IDS d 504     -13.975  51.742 175.019  0.00  0.00    -0.646 OA
ATOM     54  O61 IDS d 504     -14.466  51.922 172.979  0.00  0.00    -0.646 OA
ENDBRANCH   6  52
BRANCH   5  55
ATOM     55  O2  IDS d 504     -18.738  48.762 173.442  0.00  0.00    -0.244 OA
BRANCH  55  56
ATOM     56  S   IDS d 504     -19.711  48.338 172.328  0.00  0.00     0.252 S 
ATOM     57  O2S IDS d 504     -19.167  47.171 171.697  0.00  0.00    -0.572 OA
ATOM     58  O3S IDS d 504     -20.932  48.130 173.012  0.00  0.00    -0.572 OA
ATOM     59  O1S IDS d 504     -19.788  49.430 171.428  0.00  0.00    -0.572 OA
ENDBRANCH  55  56
ENDBRANCH   5  55
BRANCH   3  60
ATOM     60  O4  SGN d 503     -15.496  47.402 172.827  0.00  0.00    -0.348 OA
BRANCH  60  61
ATOM     61  C4  SGN d 503     -14.979  47.012 171.597  0.00  0.00     0.186 C 
ATOM     62  C5  SGN d 503     -15.040  45.477 171.501  0.00  0.00     0.181 C 
ATOM     63  O5  SGN d 503     -14.437  45.024 170.329  0.00  0.00    -0.349 OA
ATOM     64  C1  SGN d 503     -13.071  45.348 170.244  0.00  0.00     0.282 C 
ATOM     65  C2  SGN d 503     -12.903  46.874 170.268  0.00  0.00     0.157 C 
ATOM     66  C3  SGN d 503     -13.531  47.487 171.507  0.00  0.00     0.173 C 
BRANCH  62  67
ATOM     67  C6  SGN d 503     -16.434  44.912 171.452  0.00  0.00     0.227 C 
BRANCH  67  68
ATOM     68  O6  SGN d 503     -16.384  43.722 170.695  0.00  0.00    -0.254 OA
BRANCH  68  69
ATOM     69  S2  SGN d 503     -17.534  42.690 170.558  0.00  0.00     0.251 S 
ATOM     70  O6S SGN d 503     -18.408  43.284 169.623  0.00  0.00    -0.572 OA
ATOM     71  O4S SGN d 503     -16.993  41.486 170.026  0.00  0.00    -0.572 OA
ATOM     72  O5S SGN d 503     -18.095  42.494 171.891  0.00  0.00    -0.572 OA
ENDBRANCH  68  69
ENDBRANCH  67  68
ENDBRANCH  62  67
BRANCH  64  73
ATOM     73  O4  IDS d 502     -12.336  44.747 171.275  0.00  0.00    -0.348 OA
BRANCH  73  74
ATOM     74  C4  IDS d 502     -12.204  43.353 171.168  0.00  0.00     0.195 C 
ATOM     75  C3  IDS d 502     -11.055  43.016 170.199  0.00  0.00     0.185 C 
ATOM     76  C2  IDS d 502      -9.698  43.379 170.810  0.00  0.00     0.231 C 
ATOM     77  C1  IDS d 502      -9.557  42.855 172.236  0.00  0.00     0.291 C 
ATOM     78  O5  IDS d 502     -10.661  43.219 173.026  0.00  0.00    -0.340 OA
ATOM     79  C5  IDS d 502     -11.911  42.763 172.546  0.00  0.00     0.257 C 
BRANCH  75  80
ATOM     80  O3  IDS d 502     -11.062  41.625 169.944  0.00  0.00    -0.390 OA
ATOM     81  H   IDS d 502     -10.158  41.280 170.008  0.00  0.00     0.210 HD
ENDBRANCH  75  80
BRANCH  76  82
ATOM     82  O2  IDS d 502      -9.622  44.779 170.852  0.00  0.00    -0.244 OA
BRANCH  82  83
ATOM     83  S   IDS d 502      -8.463  45.692 170.331  0.00  0.00     0.252 S 
ATOM     84  O3S IDS d 502      -8.557  46.892 171.122  0.00  0.00    -0.572 OA
ATOM     85  O2S IDS d 502      -8.725  45.898 168.926  0.00  0.00    -0.572 OA
ATOM     86  O1S IDS d 502      -7.232  44.988 170.560  0.00  0.00    -0.572 OA
ENDBRANCH  82  83
ENDBRANCH  76  82
BRANCH  77  87
ATOM     87  O1  IDS d 502      -9.378  41.465 172.168  0.00  0.00    -0.368 OA
ATOM     88  H   IDS d 502     -10.062  41.025 172.697  0.00  0.00     0.212 HD
ENDBRANCH  77  87
BRANCH  79  89
ATOM     89  C6  IDS d 502     -13.005  43.007 173.576  0.00  0.00     0.206 C 
ATOM     90  O61 IDS d 502     -14.139  42.641 173.384  0.00  0.00    -0.646 OA
ATOM     91  O62 IDS d 502     -12.763  43.575 174.623  0.00  0.00    -0.646 OA
ENDBRANCH  79  89
ENDBRANCH  73  74
ENDBRANCH  64  73
BRANCH  65  92
ATOM     92  N   SGN d 503     -11.501  47.233 170.153  0.00  0.00    -0.210 NA
ATOM     93  H   SGN d 503     -11.005  46.418 169.794  0.00  0.00     0.140 HD
BRANCH  92  94
ATOM     94  S1  SGN d 503     -11.122  48.493 169.196  0.00  0.00     0.156 S 
BRANCH  94  95
ATOM     95  O2S SGN d 503     -12.347  49.244 168.924  0.00  0.00    -0.296 OA
ATOM     96  H   SGN d 503     -12.258  49.711 168.078  0.00  0.00     0.231 HD
ENDBRANCH  94  95
BRANCH  94  97
ATOM     97  O1S SGN d 503     -10.551  47.927 167.988  0.00  0.00    -0.296 OA
ATOM     98  H   SGN d 503      -9.930  48.561 167.596  0.00  0.00     0.231 HD
ENDBRANCH  94  97
BRANCH  94  99
ATOM     99  O3S SGN d 503     -10.150  49.223 169.977  0.00  0.00    -0.296 OA
ATOM    100  H   SGN d 503     -10.464  49.303 170.891  0.00  0.00     0.231 HD
ENDBRANCH  94  99
ENDBRANCH  92  94
ENDBRANCH  65  92
BRANCH  66 101
ATOM    101  O3  SGN d 503     -13.536  48.897 171.397  0.00  0.00    -0.391 OA
ATOM    102  H   SGN d 503     -13.205  49.288 172.221  0.00  0.00     0.210 HD
ENDBRANCH  66 101
ENDBRANCH  60  61
ENDBRANCH   3  60
TORSDOF 40
ENDMDL
MODEL 70
REMARK VINA RESULT:      -2.3      2.737     12.307
REMARK WARNING: 32 MAX_TORS EXCEEDED!!!
REMARK  40 active torsions:
REMARK  status: ('A' for Active; 'I' for Inactive)
REMARK    1 I    between atoms: C6_1  and  C5_8 
REMARK    2 I    between atoms: C6_1  and  O6_57 
REMARK    3 I    between atoms: O4_2  and  C4_49 
REMARK    4 I    between atoms: O6_3  and  C6_7 
REMARK    5 I    between atoms: O6_3  and  S2_58 
REMARK    6 I    between atoms: S_4  and  O2_6 
REMARK    7 I    between atoms: O3_5  and  C3_81 
REMARK    8 I    between atoms: O2_6  and  C2_11 
REMARK    9 I    between atoms: C6_7  and  C5_54 
REMARK   10 I    between atoms: O4_9  and  C4_32 
REMARK   11 I    between atoms: O4_9  and  C1_39 
REMARK   12 I    between atoms: O3_12  and  C3_18 
REMARK   13 I    between atoms: N_13  and  C2_52 
REMARK   14 I    between atoms: N_13  and  S1_45 
REMARK   15 I    between atoms: O3_17  and  C3_83 
REMARK   16 I    between atoms: C4_20  and  O4_44 
REMARK   17 I    between atoms: N_21  and  C2_66 
REMARK   18 I    between atoms: N_21  and  S1_53 
REMARK   19 I    between atoms: O3_22  and  C3_65 
REMARK   20 I    between atoms: C4_23  and  O4_74 
REMARK   21 I    between atoms: C1_25  and  O1_72 
REMARK   22 I    between atoms: C2_28  and  O2_69 
REMARK   23 I    between atoms: C4_33  and  O4_61 
REMARK   24 I    between atoms: O2S_34  and  S1_45 
REMARK   25 I    between atoms: C6_37  and  C5_47 
REMARK   26 I    between atoms: O2_38  and  C2_77 
REMARK   27 I    between atoms: O2_38  and  S_50 
REMARK   28 I    between atoms: O3S_40  and  S1_53 
REMARK   29 I    between atoms: O1S_42  and  S1_45 
REMARK   30 I    between atoms: O1S_43  and  S1_53 
REMARK   31 I    between atoms: O4_44  and  C1_46 
REMARK   32 I    between atoms: S1_45  and  O3S_60 
REMARK   33 I    between atoms: C6_48  and  C5_84 
REMARK   34 I    between atoms: C6_51  and  C5_87 
REMARK   35 I    between atoms: S1_53  and  O2S_55 
REMARK   36 I    between atoms: C1_56  and  O4_74 
REMARK   37 I    between atoms: O6_57  and  S2_82 
REMARK   38 I    between atoms: O4_61  and  C1_70 
REMARK   39 I    between atoms: C3_63  and  O3_79 
REMARK   40 I    between atoms: O2_69  and  S_76 
ROOT
ATOM      1  C3  IDS d 504     -17.379  50.705 176.206  0.00  0.00     0.185 C 
ATOM      2  C4  IDS d 504     -17.844  51.642 175.102  0.00  0.00     0.195 C 
ATOM      3  C1  IDS d 504     -16.493  49.161 174.351  0.00  0.00     0.294 C 
ATOM      4  O5  IDS d 504     -17.012  50.125 173.429  0.00  0.00    -0.340 OA
ATOM      5  C2  IDS d 504     -17.209  49.226 175.685  0.00  0.00     0.231 C 
ATOM      6  C5  IDS d 504     -16.943  51.457 173.883  0.00  0.00     0.257 C 
ENDROOT
BRANCH   2   7
ATOM      7  O4  IDS d 504     -19.190  51.339 174.766  0.00  0.00    -0.348 OA
BRANCH   7   8
ATOM      8  C1  SGN d 505     -20.110  51.641 175.781  0.00  0.00     0.282 C 
ATOM      9  O5  SGN d 505     -20.149  53.021 176.009  0.00  0.00    -0.349 OA
ATOM     10  C5  SGN d 505     -20.616  53.757 174.921  0.00  0.00     0.181 C 
ATOM     11  C4  SGN d 505     -22.044  53.418 174.637  0.00  0.00     0.186 C 
ATOM     12  C3  SGN d 505     -22.071  51.916 174.229  0.00  0.00     0.173 C 
ATOM     13  C2  SGN d 505     -21.501  51.146 175.436  0.00  0.00     0.157 C 
BRANCH  10  14
ATOM     14  C6  SGN d 505     -20.422  55.196 175.274  0.00  0.00     0.227 C 
BRANCH  14  15
ATOM     15  O6  SGN d 505     -19.309  55.220 176.101  0.00  0.00    -0.254 OA
BRANCH  15  16
ATOM     16  S2  SGN d 505     -18.082  56.111 175.969  0.00  0.00     0.251 S 
ATOM     17  O5S SGN d 505     -18.500  57.382 176.506  0.00  0.00    -0.572 OA
ATOM     18  O4S SGN d 505     -17.789  56.125 174.554  0.00  0.00    -0.572 OA
ATOM     19  O6S SGN d 505     -17.024  55.494 176.757  0.00  0.00    -0.572 OA
ENDBRANCH  15  16
ENDBRANCH  14  15
ENDBRANCH  10  14
BRANCH  11  20
ATOM     20  O4  SGN d 505     -22.465  54.327 173.642  0.00  0.00    -0.348 OA
BRANCH  20  21
ATOM     21  C1  IDS d 506     -23.736  54.880 173.598  0.00  0.00     0.294 C 
ATOM     22  C2  IDS d 506     -23.819  55.839 172.401  0.00  0.00     0.231 C 
ATOM     23  C3  IDS d 506     -25.066  56.766 172.441  0.00  0.00     0.185 C 
ATOM     24  C4  IDS d 506     -25.434  57.250 173.860  0.00  0.00     0.189 C 
ATOM     25  C5  IDS d 506     -25.219  56.134 174.887  0.00  0.00     0.256 C 
ATOM     26  O5  IDS d 506     -23.931  55.623 174.775  0.00  0.00    -0.340 OA
BRANCH  22  27
ATOM     27  O2  IDS d 506     -22.683  56.681 172.373  0.00  0.00    -0.244 OA
BRANCH  27  28
ATOM     28  S   IDS d 506     -21.619  56.858 171.206  0.00  0.00     0.252 S 
ATOM     29  O1S IDS d 506     -21.996  58.066 170.540  0.00  0.00    -0.572 OA
ATOM     30  O2S IDS d 506     -20.319  56.982 171.803  0.00  0.00    -0.572 OA
ATOM     31  O3S IDS d 506     -21.756  55.681 170.375  0.00  0.00    -0.572 OA
ENDBRANCH  27  28
ENDBRANCH  22  27
BRANCH  23  32
ATOM     32  O3  IDS d 506     -26.177  56.054 171.903  0.00  0.00    -0.390 OA
ATOM     33  H   IDS d 506     -26.379  56.393 171.016  0.00  0.00     0.210 HD
ENDBRANCH  23  32
BRANCH  24  34
ATOM     34  O4  IDS d 506     -24.595  58.341 174.160  0.00  0.00    -0.390 OA
ATOM     35  H   IDS d 506     -23.785  58.282 173.630  0.00  0.00     0.210 HD
ENDBRANCH  24  34
BRANCH  25  36
ATOM     36  C6  IDS d 506     -25.496  56.484 176.338  0.00  0.00     0.206 C 
ATOM     37  O62 IDS d 506     -25.362  57.617 176.767  0.00  0.00    -0.646 OA
ATOM     38  O61 IDS d 506     -25.882  55.619 177.112  0.00  0.00    -0.646 OA
ENDBRANCH  25  36
ENDBRANCH  20  21
ENDBRANCH  11  20
BRANCH  12  39
ATOM     39  O3  SGN d 505     -23.408  51.483 174.009  0.00  0.00    -0.391 OA
ATOM     40  H   SGN d 505     -23.892  51.487 174.849  0.00  0.00     0.210 HD
ENDBRANCH  12  39
BRANCH  13  41
ATOM     41  N   SGN d 505     -21.475  49.672 175.293  0.00  0.00    -0.210 NA
ATOM     42  H   SGN d 505     -20.557  49.351 175.601  0.00  0.00     0.140 HD
BRANCH  41  43
ATOM     43  S1  SGN d 505     -22.623  48.792 176.139  0.00  0.00     0.156 S 
BRANCH  43  44
ATOM     44  O3S SGN d 505     -22.052  48.468 177.398  0.00  0.00    -0.296 OA
ATOM     45  H   SGN d 505     -22.458  47.656 177.738  0.00  0.00     0.231 HD
ENDBRANCH  43  44
BRANCH  43  46
ATOM     46  O1S SGN d 505     -23.810  49.614 176.252  0.00  0.00    -0.296 OA
ATOM     47  H   SGN d 505     -23.665  50.299 176.923  0.00  0.00     0.231 HD
ENDBRANCH  43  46
BRANCH  43  48
ATOM     48  O2S SGN d 505     -22.846  47.608 175.342  0.00  0.00    -0.296 OA
ATOM     49  H   SGN d 505     -23.485  47.032 175.790  0.00  0.00     0.231 HD
ENDBRANCH  43  48
ENDBRANCH  41  43
ENDBRANCH  13  41
ENDBRANCH   7   8
ENDBRANCH   2   7
BRANCH   1  50
ATOM     50  O3  IDS d 504     -16.126  51.194 176.668  0.00  0.00    -0.390 OA
ATOM     51  H   IDS d 504     -15.885  50.739 177.491  0.00  0.00     0.210 HD
ENDBRANCH   1  50
BRANCH   6  52
ATOM     52  C6  IDS d 504     -17.205  52.434 172.724  0.00  0.00     0.206 C 
ATOM     53  O62 IDS d 504     -16.469  52.461 171.735  0.00  0.00    -0.646 OA
ATOM     54  O61 IDS d 504     -18.142  53.221 172.764  0.00  0.00    -0.646 OA
ENDBRANCH   6  52
BRANCH   5  55
ATOM     55  O2  IDS d 504     -18.483  48.600 175.541  0.00  0.00    -0.244 OA
BRANCH  55  56
ATOM     56  S   IDS d 504     -18.934  47.276 176.184  0.00  0.00     0.252 S 
ATOM     57  O2S IDS d 504     -19.284  47.552 177.546  0.00  0.00    -0.572 OA
ATOM     58  O3S IDS d 504     -20.010  46.857 175.366  0.00  0.00    -0.572 OA
ATOM     59  O1S IDS d 504     -17.829  46.392 176.098  0.00  0.00    -0.572 OA
ENDBRANCH  55  56
ENDBRANCH   5  55
BRANCH   3  60
ATOM     60  O4  SGN d 503     -15.123  49.322 174.580  0.00  0.00    -0.348 OA
BRANCH  60  61
ATOM     61  C4  SGN d 503     -14.329  48.365 173.958  0.00  0.00     0.186 C 
ATOM     62  C5  SGN d 503     -12.980  48.289 174.694  0.00  0.00     0.181 C 
ATOM     63  O5  SGN d 503     -12.104  47.419 174.048  0.00  0.00    -0.349 OA
ATOM     64  C1  SGN d 503     -11.791  47.817 172.736  0.00  0.00     0.282 C 
ATOM     65  C2  SGN d 503     -13.073  47.863 171.893  0.00  0.00     0.157 C 
ATOM     66  C3  SGN d 503     -14.113  48.783 172.506  0.00  0.00     0.173 C 
BRANCH  62  67
ATOM     67  C6  SGN d 503     -13.067  47.762 176.101  0.00  0.00     0.227 C 
BRANCH  67  68
ATOM     68  O6  SGN d 503     -14.020  48.544 176.789  0.00  0.00    -0.254 OA
BRANCH  68  69
ATOM     69  S2  SGN d 503     -13.747  49.382 178.066  0.00  0.00     0.251 S 
ATOM     70  O6S SGN d 503     -15.007  49.451 178.697  0.00  0.00    -0.572 OA
ATOM     71  O4S SGN d 503     -12.829  48.665 178.884  0.00  0.00    -0.572 OA
ATOM     72  O5S SGN d 503     -13.203  50.664 177.628  0.00  0.00    -0.572 OA
ENDBRANCH  68  69
ENDBRANCH  67  68
ENDBRANCH  62  67
BRANCH  64  73
ATOM     73  O4  IDS d 502     -11.135  49.055 172.718  0.00  0.00    -0.348 OA
BRANCH  73  74
ATOM     74  C4  IDS d 502      -9.888  49.070 173.365  0.00  0.00     0.195 C 
ATOM     75  C3  IDS d 502      -8.816  48.471 172.436  0.00  0.00     0.185 C 
ATOM     76  C2  IDS d 502      -8.530  49.404 171.256  0.00  0.00     0.231 C 
ATOM     77  C1  IDS d 502      -8.304  50.843 171.710  0.00  0.00     0.291 C 
ATOM     78  O5  IDS d 502      -9.340  51.281 172.553  0.00  0.00    -0.340 OA
ATOM     79  C5  IDS d 502      -9.519  50.508 173.723  0.00  0.00     0.257 C 
BRANCH  75  80
ATOM     80  O3  IDS d 502      -7.616  48.306 173.165  0.00  0.00    -0.390 OA
ATOM     81  H   IDS d 502      -6.967  48.964 172.873  0.00  0.00     0.210 HD
ENDBRANCH  75  80
BRANCH  76  82
ATOM     82  O2  IDS d 502      -9.659  49.383 170.424  0.00  0.00    -0.244 OA
BRANCH  82  83
ATOM     83  S   IDS d 502      -9.797  48.721 169.014  0.00  0.00     0.252 S 
ATOM     84  O3S IDS d 502     -10.011  47.323 169.283  0.00  0.00    -0.572 OA
ATOM     85  O2S IDS d 502      -8.559  49.000 168.324  0.00  0.00    -0.572 OA
ATOM     86  O1S IDS d 502     -10.930  49.326 168.368  0.00  0.00    -0.572 OA
ENDBRANCH  82  83
ENDBRANCH  76  82
BRANCH  77  87
ATOM     87  O1  IDS d 502      -7.044  50.908 172.324  0.00  0.00    -0.368 OA
ATOM     88  H   IDS d 502      -6.467  50.224 171.951  0.00  0.00     0.212 HD
ENDBRANCH  77  87
BRANCH  79  89
ATOM     89  C6  IDS d 502     -10.498  51.186 174.672  0.00  0.00     0.206 C 
ATOM     90  O61 IDS d 502     -10.522  50.913 175.848  0.00  0.00    -0.646 OA
ATOM     91  O62 IDS d 502     -11.279  52.026 174.270  0.00  0.00    -0.646 OA
ENDBRANCH  79  89
ENDBRANCH  73  74
ENDBRANCH  64  73
BRANCH  65  92
ATOM     92  N   SGN d 503     -12.769  48.244 170.525  0.00  0.00    -0.210 NA
ATOM     93  H   SGN d 503     -11.832  47.902 170.314  0.00  0.00     0.140 HD
BRANCH  92  94
ATOM     94  S1  SGN d 503     -13.761  47.703 169.354  0.00  0.00     0.156 S 
BRANCH  94  95
ATOM     95  O2S SGN d 503     -12.947  47.359 168.189  0.00  0.00    -0.296 OA
ATOM     96  H   SGN d 503     -12.260  46.726 168.450  0.00  0.00     0.231 HD
ENDBRANCH  94  95
BRANCH  94  97
ATOM     97  O1S SGN d 503     -14.685  48.786 169.073  0.00  0.00    -0.296 OA
ATOM     98  H   SGN d 503     -14.214  49.632 169.124  0.00  0.00     0.231 HD
ENDBRANCH  94  97
BRANCH  94  99
ATOM     99  O3S SGN d 503     -14.411  46.567 169.969  0.00  0.00    -0.296 OA
ATOM    100  H   SGN d 503     -15.369  46.634 169.840  0.00  0.00     0.231 HD
ENDBRANCH  94  99
ENDBRANCH  92  94
ENDBRANCH  65  92
BRANCH  66 101
ATOM    101  O3  SGN d 503     -15.343  48.645 171.820  0.00  0.00    -0.391 OA
ATOM    102  H   SGN d 503     -15.189  48.709 170.865  0.00  0.00     0.210 HD
ENDBRANCH  66 101
ENDBRANCH  60  61
ENDBRANCH   3  60
TORSDOF 40
ENDMDL
MODEL 71
REMARK VINA RESULT:      -2.3      1.751      2.532
REMARK WARNING: 32 MAX_TORS EXCEEDED!!!
REMARK  40 active torsions:
REMARK  status: ('A' for Active; 'I' for Inactive)
REMARK    1 I    between atoms: C6_1  and  C5_8 
REMARK    2 I    between atoms: C6_1  and  O6_57 
REMARK    3 I    between atoms: O4_2  and  C4_49 
REMARK    4 I    between atoms: O6_3  and  C6_7 
REMARK    5 I    between atoms: O6_3  and  S2_58 
REMARK    6 I    between atoms: S_4  and  O2_6 
REMARK    7 I    between atoms: O3_5  and  C3_81 
REMARK    8 I    between atoms: O2_6  and  C2_11 
REMARK    9 I    between atoms: C6_7  and  C5_54 
REMARK   10 I    between atoms: O4_9  and  C4_32 
REMARK   11 I    between atoms: O4_9  and  C1_39 
REMARK   12 I    between atoms: O3_12  and  C3_18 
REMARK   13 I    between atoms: N_13  and  C2_52 
REMARK   14 I    between atoms: N_13  and  S1_45 
REMARK   15 I    between atoms: O3_17  and  C3_83 
REMARK   16 I    between atoms: C4_20  and  O4_44 
REMARK   17 I    between atoms: N_21  and  C2_66 
REMARK   18 I    between atoms: N_21  and  S1_53 
REMARK   19 I    between atoms: O3_22  and  C3_65 
REMARK   20 I    between atoms: C4_23  and  O4_74 
REMARK   21 I    between atoms: C1_25  and  O1_72 
REMARK   22 I    between atoms: C2_28  and  O2_69 
REMARK   23 I    between atoms: C4_33  and  O4_61 
REMARK   24 I    between atoms: O2S_34  and  S1_45 
REMARK   25 I    between atoms: C6_37  and  C5_47 
REMARK   26 I    between atoms: O2_38  and  C2_77 
REMARK   27 I    between atoms: O2_38  and  S_50 
REMARK   28 I    between atoms: O3S_40  and  S1_53 
REMARK   29 I    between atoms: O1S_42  and  S1_45 
REMARK   30 I    between atoms: O1S_43  and  S1_53 
REMARK   31 I    between atoms: O4_44  and  C1_46 
REMARK   32 I    between atoms: S1_45  and  O3S_60 
REMARK   33 I    between atoms: C6_48  and  C5_84 
REMARK   34 I    between atoms: C6_51  and  C5_87 
REMARK   35 I    between atoms: S1_53  and  O2S_55 
REMARK   36 I    between atoms: C1_56  and  O4_74 
REMARK   37 I    between atoms: O6_57  and  S2_82 
REMARK   38 I    between atoms: O4_61  and  C1_70 
REMARK   39 I    between atoms: C3_63  and  O3_79 
REMARK   40 I    between atoms: O2_69  and  S_76 
ROOT
ATOM      1  C3  IDS d 504     -16.041  49.628 175.026  0.00  0.00     0.185 C 
ATOM      2  C4  IDS d 504     -15.706  49.109 173.636  0.00  0.00     0.195 C 
ATOM      3  C1  IDS d 504     -15.188  51.922 174.238  0.00  0.00     0.294 C 
ATOM      4  O5  IDS d 504     -14.899  51.283 172.991  0.00  0.00    -0.340 OA
ATOM      5  C2  IDS d 504     -15.217  50.926 175.379  0.00  0.00     0.231 C 
ATOM      6  C5  IDS d 504     -15.804  50.262 172.639  0.00  0.00     0.257 C 
ENDROOT
BRANCH   2   7
ATOM      7  O4  IDS d 504     -14.389  48.577 173.639  0.00  0.00    -0.348 OA
BRANCH   7   8
ATOM      8  C1  SGN d 505     -14.340  47.186 173.806  0.00  0.00     0.282 C 
ATOM      9  O5  SGN d 505     -14.179  46.551 172.569  0.00  0.00    -0.349 OA
ATOM     10  C5  SGN d 505     -12.968  46.844 171.942  0.00  0.00     0.181 C 
ATOM     11  C4  SGN d 505     -11.825  46.317 172.747  0.00  0.00     0.186 C 
ATOM     12  C3  SGN d 505     -11.844  47.083 174.101  0.00  0.00     0.173 C 
ATOM     13  C2  SGN d 505     -13.214  46.775 174.735  0.00  0.00     0.157 C 
BRANCH  10  14
ATOM     14  C6  SGN d 505     -13.046  46.237 170.578  0.00  0.00     0.227 C 
BRANCH  14  15
ATOM     15  O6  SGN d 505     -13.499  47.255 169.753  0.00  0.00    -0.254 OA
BRANCH  15  16
ATOM     16  S2  SGN d 505     -14.449  47.128 168.571  0.00  0.00     0.251 S 
ATOM     17  O5S SGN d 505     -14.558  48.468 168.049  0.00  0.00    -0.572 OA
ATOM     18  O4S SGN d 505     -15.671  46.604 169.135  0.00  0.00    -0.572 OA
ATOM     19  O6S SGN d 505     -13.827  46.211 167.625  0.00  0.00    -0.572 OA
ENDBRANCH  15  16
ENDBRANCH  14  15
ENDBRANCH  10  14
BRANCH  11  20
ATOM     20  O4  SGN d 505     -10.673  46.512 171.952  0.00  0.00    -0.348 OA
BRANCH  20  21
ATOM     21  C1  IDS d 506      -9.651  45.582 171.843  0.00  0.00     0.294 C 
ATOM     22  C2  IDS d 506      -8.600  46.112 170.857  0.00  0.00     0.231 C 
ATOM     23  C3  IDS d 506      -7.587  45.028 170.396  0.00  0.00     0.185 C 
ATOM     24  C4  IDS d 506      -8.218  43.635 170.192  0.00  0.00     0.189 C 
ATOM     25  C5  IDS d 506      -9.273  43.355 171.268  0.00  0.00     0.256 C 
ATOM     26  O5  IDS d 506     -10.192  44.397 171.318  0.00  0.00    -0.340 OA
BRANCH  22  27
ATOM     27  O2  IDS d 506      -9.231  46.605 169.692  0.00  0.00    -0.244 OA
BRANCH  27  28
ATOM     28  S   IDS d 506      -8.561  47.292 168.425  0.00  0.00     0.252 S 
ATOM     29  O1S IDS d 506      -7.403  47.960 168.933  0.00  0.00    -0.572 OA
ATOM     30  O2S IDS d 506      -8.196  46.259 167.498  0.00  0.00    -0.572 OA
ATOM     31  O3S IDS d 506      -9.560  48.200 167.903  0.00  0.00    -0.572 OA
ENDBRANCH  27  28
ENDBRANCH  22  27
BRANCH  23  32
ATOM     32  O3  IDS d 506      -6.559  44.922 171.378  0.00  0.00    -0.390 OA
ATOM     33  H   IDS d 506      -6.929  44.547 172.193  0.00  0.00     0.210 HD
ENDBRANCH  23  32
BRANCH  24  34
ATOM     34  O4  IDS d 506      -8.823  43.631 168.920  0.00  0.00    -0.390 OA
ATOM     35  H   IDS d 506      -9.125  42.734 168.708  0.00  0.00     0.210 HD
ENDBRANCH  24  34
BRANCH  25  36
ATOM     36  C6  IDS d 506     -10.015  42.035 171.165  0.00  0.00     0.206 C 
ATOM     37  O62 IDS d 506     -10.595  41.543 172.117  0.00  0.00    -0.646 OA
ATOM     38  O61 IDS d 506     -10.055  41.438 170.098  0.00  0.00    -0.646 OA
ENDBRANCH  25  36
ENDBRANCH  20  21
ENDBRANCH  11  20
BRANCH  12  39
ATOM     39  O3  SGN d 505     -10.827  46.594 174.965  0.00  0.00    -0.391 OA
ATOM     40  H   SGN d 505     -11.214  46.368 175.826  0.00  0.00     0.210 HD
ENDBRANCH  12  39
BRANCH  13  41
ATOM     41  N   SGN d 505     -13.442  47.368 176.073  0.00  0.00    -0.210 NA
ATOM     42  H   SGN d 505     -14.302  47.915 176.022  0.00  0.00     0.140 HD
BRANCH  41  43
ATOM     43  S1  SGN d 505     -13.592  46.317 177.370  0.00  0.00     0.156 S 
BRANCH  43  44
ATOM     44  O3S SGN d 505     -14.679  45.452 177.078  0.00  0.00    -0.296 OA
ATOM     45  H   SGN d 505     -14.474  44.932 176.285  0.00  0.00     0.231 HD
ENDBRANCH  43  44
BRANCH  43  46
ATOM     46  O1S SGN d 505     -12.333  45.617 177.513  0.00  0.00    -0.296 OA
ATOM     47  H   SGN d 505     -11.920  45.514 176.642  0.00  0.00     0.231 HD
ENDBRANCH  43  46
BRANCH  43  48
ATOM     48  O2S SGN d 505     -13.884  47.164 178.503  0.00  0.00    -0.296 OA
ATOM     49  H   SGN d 505     -13.579  46.733 179.316  0.00  0.00     0.231 HD
ENDBRANCH  43  48
ENDBRANCH  41  43
ENDBRANCH  13  41
ENDBRANCH   7   8
ENDBRANCH   2   7
BRANCH   1  50
ATOM     50  O3  IDS d 504     -17.431  49.929 175.035  0.00  0.00    -0.390 OA
ATOM     51  H   IDS d 504     -17.662  50.366 175.870  0.00  0.00     0.210 HD
ENDBRANCH   1  50
BRANCH   6  52
ATOM     52  C6  IDS d 504     -15.622  49.866 171.164  0.00  0.00     0.206 C 
ATOM     53  O62 IDS d 504     -14.631  50.228 170.525  0.00  0.00    -0.646 OA
ATOM     54  O61 IDS d 504     -16.466  49.196 170.583  0.00  0.00    -0.646 OA
ENDBRANCH   6  52
BRANCH   5  55
ATOM     55  O2  IDS d 504     -13.872  50.587 175.713  0.00  0.00    -0.244 OA
BRANCH  55  56
ATOM     56  S   IDS d 504     -13.258  50.541 177.123  0.00  0.00     0.252 S 
ATOM     57  O2S IDS d 504     -12.018  49.826 177.034  0.00  0.00    -0.572 OA
ATOM     58  O3S IDS d 504     -13.134  51.905 177.478  0.00  0.00    -0.572 OA
ATOM     59  O1S IDS d 504     -14.193  49.864 177.945  0.00  0.00    -0.572 OA
ENDBRANCH  55  56
ENDBRANCH   5  55
BRANCH   3  60
ATOM     60  O4  SGN d 503     -16.408  52.606 174.220  0.00  0.00    -0.348 OA
BRANCH  60  61
ATOM     61  C4  SGN d 503     -16.283  53.985 174.096  0.00  0.00     0.186 C 
ATOM     62  C5  SGN d 503     -17.285  54.659 175.049  0.00  0.00     0.181 C 
ATOM     63  O5  SGN d 503     -17.276  56.043 174.887  0.00  0.00    -0.349 OA
ATOM     64  C1  SGN d 503     -17.653  56.457 173.598  0.00  0.00     0.282 C 
ATOM     65  C2  SGN d 503     -16.669  55.884 172.567  0.00  0.00     0.157 C 
ATOM     66  C3  SGN d 503     -16.590  54.371 172.651  0.00  0.00     0.173 C 
BRANCH  62  67
ATOM     67  C6  SGN d 503     -16.995  54.446 176.510  0.00  0.00     0.227 C 
BRANCH  67  68
ATOM     68  O6  SGN d 503     -18.132  53.840 177.085  0.00  0.00    -0.254 OA
BRANCH  68  69
ATOM     69  S2  SGN d 503     -18.283  52.330 177.409  0.00  0.00     0.251 S 
ATOM     70  O6S SGN d 503     -19.077  52.315 178.576  0.00  0.00    -0.572 OA
ATOM     71  O4S SGN d 503     -18.981  51.710 176.335  0.00  0.00    -0.572 OA
ATOM     72  O5S SGN d 503     -16.937  51.790 177.569  0.00  0.00    -0.572 OA
ENDBRANCH  68  69
ENDBRANCH  67  68
ENDBRANCH  62  67
BRANCH  64  73
ATOM     73  O4  IDS d 502     -18.969  56.076 173.301  0.00  0.00    -0.348 OA
BRANCH  73  74
ATOM     74  C4  IDS d 502     -19.952  56.996 173.699  0.00  0.00     0.195 C 
ATOM     75  C3  IDS d 502     -20.326  57.899 172.508  0.00  0.00     0.185 C 
ATOM     76  C2  IDS d 502     -21.095  57.112 171.443  0.00  0.00     0.231 C 
ATOM     77  C1  IDS d 502     -22.227  56.289 172.050  0.00  0.00     0.291 C 
ATOM     78  O5  IDS d 502     -21.770  55.508 173.126  0.00  0.00    -0.340 OA
ATOM     79  C5  IDS d 502     -21.187  56.241 174.185  0.00  0.00     0.257 C 
BRANCH  75  80
ATOM     80  O3  IDS d 502     -21.162  58.944 172.969  0.00  0.00    -0.390 OA
ATOM     81  H   IDS d 502     -21.065  59.715 172.389  0.00  0.00     0.210 HD
ENDBRANCH  75  80
BRANCH  76  82
ATOM     82  O2  IDS d 502     -20.187  56.227 170.843  0.00  0.00    -0.244 OA
BRANCH  82  83
ATOM     83  S   IDS d 502     -20.181  55.718 169.364  0.00  0.00     0.252 S 
ATOM     84  O3S IDS d 502     -21.224  56.468 168.713  0.00  0.00    -0.572 OA
ATOM     85  O2S IDS d 502     -20.440  54.299 169.434  0.00  0.00    -0.572 OA
ATOM     86  O1S IDS d 502     -18.884  56.010 168.818  0.00  0.00    -0.572 OA
ENDBRANCH  82  83
ENDBRANCH  76  82
BRANCH  77  87
ATOM     87  O1  IDS d 502     -23.252  57.172 172.421  0.00  0.00    -0.368 OA
ATOM     88  H   IDS d 502     -23.838  57.323 171.662  0.00  0.00     0.212 HD
ENDBRANCH  77  87
BRANCH  79  89
ATOM     89  C6  IDS d 502     -20.936  55.342 175.387  0.00  0.00     0.206 C 
ATOM     90  O61 IDS d 502     -21.092  54.147 175.320  0.00  0.00    -0.646 OA
ATOM     91  O62 IDS d 502     -20.566  55.805 176.449  0.00  0.00    -0.646 OA
ENDBRANCH  79  89
ENDBRANCH  73  74
ENDBRANCH  64  73
BRANCH  65  92
ATOM     92  N   SGN d 503     -17.023  56.322 171.228  0.00  0.00    -0.210 NA
ATOM     93  H   SGN d 503     -17.837  56.931 171.311  0.00  0.00     0.140 HD
BRANCH  92  94
ATOM     94  S1  SGN d 503     -15.896  57.131 170.378  0.00  0.00     0.156 S 
BRANCH  94  95
ATOM     95  O2S SGN d 503     -15.349  58.185 171.232  0.00  0.00    -0.296 OA
ATOM     96  H   SGN d 503     -15.486  59.047 170.809  0.00  0.00     0.231 HD
ENDBRANCH  94  95
BRANCH  94  97
ATOM     97  O1S SGN d 503     -16.575  57.670 169.215  0.00  0.00    -0.296 OA
ATOM     98  H   SGN d 503     -16.795  56.948 168.606  0.00  0.00     0.231 HD
ENDBRANCH  94  97
BRANCH  94  99
ATOM     99  O3S SGN d 503     -14.940  56.103 170.033  0.00  0.00    -0.296 OA
ATOM    100  H   SGN d 503     -15.227  55.257 170.408  0.00  0.00     0.231 HD
ENDBRANCH  94  99
ENDBRANCH  92  94
ENDBRANCH  65  92
BRANCH  66 101
ATOM    101  O3  SGN d 503     -15.535  53.898 171.835  0.00  0.00    -0.391 OA
ATOM    102  H   SGN d 503     -15.900  53.379 171.102  0.00  0.00     0.210 HD
ENDBRANCH  66 101
ENDBRANCH  60  61
ENDBRANCH   3  60
TORSDOF 40
ENDMDL
MODEL 72
REMARK VINA RESULT:      -2.2      1.311      2.046
REMARK WARNING: 32 MAX_TORS EXCEEDED!!!
REMARK  40 active torsions:
REMARK  status: ('A' for Active; 'I' for Inactive)
REMARK    1 I    between atoms: C6_1  and  C5_8 
REMARK    2 I    between atoms: C6_1  and  O6_57 
REMARK    3 I    between atoms: O4_2  and  C4_49 
REMARK    4 I    between atoms: O6_3  and  C6_7 
REMARK    5 I    between atoms: O6_3  and  S2_58 
REMARK    6 I    between atoms: S_4  and  O2_6 
REMARK    7 I    between atoms: O3_5  and  C3_81 
REMARK    8 I    between atoms: O2_6  and  C2_11 
REMARK    9 I    between atoms: C6_7  and  C5_54 
REMARK   10 I    between atoms: O4_9  and  C4_32 
REMARK   11 I    between atoms: O4_9  and  C1_39 
REMARK   12 I    between atoms: O3_12  and  C3_18 
REMARK   13 I    between atoms: N_13  and  C2_52 
REMARK   14 I    between atoms: N_13  and  S1_45 
REMARK   15 I    between atoms: O3_17  and  C3_83 
REMARK   16 I    between atoms: C4_20  and  O4_44 
REMARK   17 I    between atoms: N_21  and  C2_66 
REMARK   18 I    between atoms: N_21  and  S1_53 
REMARK   19 I    between atoms: O3_22  and  C3_65 
REMARK   20 I    between atoms: C4_23  and  O4_74 
REMARK   21 I    between atoms: C1_25  and  O1_72 
REMARK   22 I    between atoms: C2_28  and  O2_69 
REMARK   23 I    between atoms: C4_33  and  O4_61 
REMARK   24 I    between atoms: O2S_34  and  S1_45 
REMARK   25 I    between atoms: C6_37  and  C5_47 
REMARK   26 I    between atoms: O2_38  and  C2_77 
REMARK   27 I    between atoms: O2_38  and  S_50 
REMARK   28 I    between atoms: O3S_40  and  S1_53 
REMARK   29 I    between atoms: O1S_42  and  S1_45 
REMARK   30 I    between atoms: O1S_43  and  S1_53 
REMARK   31 I    between atoms: O4_44  and  C1_46 
REMARK   32 I    between atoms: S1_45  and  O3S_60 
REMARK   33 I    between atoms: C6_48  and  C5_84 
REMARK   34 I    between atoms: C6_51  and  C5_87 
REMARK   35 I    between atoms: S1_53  and  O2S_55 
REMARK   36 I    between atoms: C1_56  and  O4_74 
REMARK   37 I    between atoms: O6_57  and  S2_82 
REMARK   38 I    between atoms: O4_61  and  C1_70 
REMARK   39 I    between atoms: C3_63  and  O3_79 
REMARK   40 I    between atoms: O2_69  and  S_76 
ROOT
ATOM      1  C3  IDS d 504     -16.995  49.680 175.501  0.00  0.00     0.185 C 
ATOM      2  C4  IDS d 504     -16.321  49.264 174.203  0.00  0.00     0.195 C 
ATOM      3  C1  IDS d 504     -17.014  52.080 174.578  0.00  0.00     0.294 C 
ATOM      4  O5  IDS d 504     -16.353  51.543 173.427  0.00  0.00    -0.340 OA
ATOM      5  C2  IDS d 504     -16.789  51.215 175.802  0.00  0.00     0.231 C 
ATOM      6  C5  IDS d 504     -16.741  50.229 173.095  0.00  0.00     0.257 C 
ENDROOT
BRANCH   2   7
ATOM      7  O4  IDS d 504     -14.912  49.299 174.373  0.00  0.00    -0.348 OA
BRANCH   7   8
ATOM      8  C1  SGN d 505     -14.364  48.087 174.814  0.00  0.00     0.282 C 
ATOM      9  O5  SGN d 505     -14.258  47.183 173.751  0.00  0.00    -0.349 OA
ATOM     10  C5  SGN d 505     -13.375  47.592 172.752  0.00  0.00     0.181 C 
ATOM     11  C4  SGN d 505     -11.981  47.655 173.284  0.00  0.00     0.186 C 
ATOM     12  C3  SGN d 505     -11.975  48.753 174.388  0.00  0.00     0.173 C 
ATOM     13  C2  SGN d 505     -12.998  48.288 175.442  0.00  0.00     0.157 C 
BRANCH  10  14
ATOM     14  C6  SGN d 505     -13.525  46.612 171.634  0.00  0.00     0.227 C 
BRANCH  14  15
ATOM     15  O6  SGN d 505     -14.086  47.333 170.591  0.00  0.00    -0.254 OA
BRANCH  15  16
ATOM     16  S2  SGN d 505     -14.703  46.780 169.315  0.00  0.00     0.251 S 
ATOM     17  O5S SGN d 505     -14.876  47.933 168.467  0.00  0.00    -0.572 OA
ATOM     18  O4S SGN d 505     -15.936  46.159 169.741  0.00  0.00    -0.572 OA
ATOM     19  O6S SGN d 505     -13.752  45.823 168.765  0.00  0.00    -0.572 OA
ENDBRANCH  15  16
ENDBRANCH  14  15
ENDBRANCH  10  14
BRANCH  11  20
ATOM     20  O4  SGN d 505     -11.154  47.910 172.168  0.00  0.00    -0.348 OA
BRANCH  20  21
ATOM     21  C1  IDS d 506      -9.958  47.248 171.933  0.00  0.00     0.294 C 
ATOM     22  C2  IDS d 506      -9.459  47.607 170.526  0.00  0.00     0.231 C 
ATOM     23  C3  IDS d 506      -8.321  46.678 170.021  0.00  0.00     0.185 C 
ATOM     24  C4  IDS d 506      -8.494  45.202 170.437  0.00  0.00     0.189 C 
ATOM     25  C5  IDS d 506      -9.053  45.101 171.861  0.00  0.00     0.256 C 
ATOM     26  O5  IDS d 506     -10.207  45.866 171.975  0.00  0.00    -0.340 OA
BRANCH  22  27
ATOM     27  O2  IDS d 506     -10.518  47.502 169.594  0.00  0.00    -0.244 OA
BRANCH  27  28
ATOM     28  S   IDS d 506     -11.018  48.588 168.546  0.00  0.00     0.252 S 
ATOM     29  O1S IDS d 506     -11.935  49.410 169.273  0.00  0.00    -0.572 OA
ATOM     30  O2S IDS d 506      -9.879  49.346 168.111  0.00  0.00    -0.572 OA
ATOM     31  O3S IDS d 506     -11.646  47.837 167.481  0.00  0.00    -0.572 OA
ENDBRANCH  27  28
ENDBRANCH  22  27
BRANCH  23  32
ATOM     32  O3  IDS d 506      -7.083  47.154 170.542  0.00  0.00    -0.390 OA
ATOM     33  H   IDS d 506      -6.361  46.583 170.235  0.00  0.00     0.210 HD
ENDBRANCH  23  32
BRANCH  24  34
ATOM     34  O4  IDS d 506      -9.396  44.614 169.530  0.00  0.00    -0.390 OA
ATOM     35  H   IDS d 506      -8.988  43.829 169.130  0.00  0.00     0.210 HD
ENDBRANCH  24  34
BRANCH  25  36
ATOM     36  C6  IDS d 506      -9.320  43.704 172.388  0.00  0.00     0.206 C 
ATOM     37  O62 IDS d 506      -8.418  42.921 172.630  0.00  0.00    -0.646 OA
ATOM     38  O61 IDS d 506     -10.468  43.338 172.597  0.00  0.00    -0.646 OA
ENDBRANCH  25  36
ENDBRANCH  20  21
ENDBRANCH  11  20
BRANCH  12  39
ATOM     39  O3  SGN d 505     -10.697  48.834 175.005  0.00  0.00    -0.391 OA
ATOM     40  H   SGN d 505     -10.461  47.970 175.377  0.00  0.00     0.210 HD
ENDBRANCH  12  39
BRANCH  13  41
ATOM     41  N   SGN d 505     -13.130  49.166 176.628  0.00  0.00    -0.210 NA
ATOM     42  H   SGN d 505     -13.825  49.879 176.406  0.00  0.00     0.140 HD
BRANCH  41  43
ATOM     43  S1  SGN d 505     -13.590  48.452 178.073  0.00  0.00     0.156 S 
BRANCH  43  44
ATOM     44  O3S SGN d 505     -13.174  47.096 178.014  0.00  0.00    -0.296 OA
ATOM     45  H   SGN d 505     -13.192  46.714 178.906  0.00  0.00     0.231 HD
ENDBRANCH  43  44
BRANCH  43  46
ATOM     46  O1S SGN d 505     -12.959  49.191 179.146  0.00  0.00    -0.296 OA
ATOM     47  H   SGN d 505     -12.659  50.050 178.814  0.00  0.00     0.231 HD
ENDBRANCH  43  46
BRANCH  43  48
ATOM     48  O2S SGN d 505     -15.029  48.560 178.100  0.00  0.00    -0.296 OA
ATOM     49  H   SGN d 505     -15.407  48.038 177.375  0.00  0.00     0.231 HD
ENDBRANCH  43  48
ENDBRANCH  41  43
ENDBRANCH  13  41
ENDBRANCH   7   8
ENDBRANCH   2   7
BRANCH   1  50
ATOM     50  O3  IDS d 504     -18.383  49.405 175.359  0.00  0.00    -0.390 OA
ATOM     51  H   IDS d 504     -18.500  48.499 175.031  0.00  0.00     0.210 HD
ENDBRANCH   1  50
BRANCH   6  52
ATOM     52  C6  IDS d 504     -16.245  49.862 171.687  0.00  0.00     0.206 C 
ATOM     53  O62 IDS d 504     -15.196  50.329 171.239  0.00  0.00    -0.646 OA
ATOM     54  O61 IDS d 504     -16.891  49.109 170.969  0.00  0.00    -0.646 OA
ENDBRANCH   6  52
BRANCH   5  55
ATOM     55  O2  IDS d 504     -15.468  51.455 176.283  0.00  0.00    -0.244 OA
BRANCH  55  56
ATOM     56  S   IDS d 504     -15.082  52.107 177.623  0.00  0.00     0.252 S 
ATOM     57  O2S IDS d 504     -13.668  51.942 177.795  0.00  0.00    -0.572 OA
ATOM     58  O3S IDS d 504     -15.511  53.448 177.478  0.00  0.00    -0.572 OA
ATOM     59  O1S IDS d 504     -15.814  51.423 178.626  0.00  0.00    -0.572 OA
ENDBRANCH  55  56
ENDBRANCH   5  55
BRANCH   3  60
ATOM     60  O4  SGN d 503     -18.392  52.221 174.387  0.00  0.00    -0.348 OA
BRANCH  60  61
ATOM     61  C4  SGN d 503     -18.736  53.117 173.381  0.00  0.00     0.186 C 
ATOM     62  C5  SGN d 503     -19.427  54.334 174.020  0.00  0.00     0.181 C 
ATOM     63  O5  SGN d 503     -19.887  55.217 173.045  0.00  0.00    -0.349 OA
ATOM     64  C1  SGN d 503     -20.848  54.651 172.189  0.00  0.00     0.282 C 
ATOM     65  C2  SGN d 503     -20.234  53.454 171.448  0.00  0.00     0.157 C 
ATOM     66  C3  SGN d 503     -19.690  52.418 172.415  0.00  0.00     0.173 C 
BRANCH  62  67
ATOM     67  C6  SGN d 503     -18.531  55.169 174.895  0.00  0.00     0.227 C 
BRANCH  67  68
ATOM     68  O6  SGN d 503     -18.959  56.510 174.784  0.00  0.00    -0.254 OA
BRANCH  68  69
ATOM     69  S2  SGN d 503     -19.824  57.271 175.823  0.00  0.00     0.251 S 
ATOM     70  O6S SGN d 503     -20.870  57.819 175.051  0.00  0.00    -0.572 OA
ATOM     71  O4S SGN d 503     -20.344  56.324 176.750  0.00  0.00    -0.572 OA
ATOM     72  O5S SGN d 503     -18.953  58.248 176.470  0.00  0.00    -0.572 OA
ENDBRANCH  68  69
ENDBRANCH  67  68
ENDBRANCH  62  67
BRANCH  64  73
ATOM     73  O4  IDS d 502     -21.999  54.269 172.891  0.00  0.00    -0.348 OA
BRANCH  73  74
ATOM     74  C4  IDS d 502     -22.637  55.309 173.587  0.00  0.00     0.195 C 
ATOM     75  C3  IDS d 502     -22.940  56.469 172.618  0.00  0.00     0.185 C 
ATOM     76  C2  IDS d 502     -24.039  56.081 171.626  0.00  0.00     0.231 C 
ATOM     77  C1  IDS d 502     -25.240  55.451 172.325  0.00  0.00     0.291 C 
ATOM     78  O5  IDS d 502     -24.845  54.410 173.183  0.00  0.00    -0.340 OA
ATOM     79  C5  IDS d 502     -23.937  54.791 174.197  0.00  0.00     0.257 C 
BRANCH  75  80
ATOM     80  O3  IDS d 502     -23.394  57.582 173.363  0.00  0.00    -0.390 OA
ATOM     81  H   IDS d 502     -24.286  57.404 173.698  0.00  0.00     0.210 HD
ENDBRANCH  75  80
BRANCH  76  82
ATOM     82  O2  IDS d 502     -23.495  55.127 170.753  0.00  0.00    -0.244 OA
BRANCH  82  83
ATOM     83  S   IDS d 502     -23.331  55.233 169.201  0.00  0.00     0.252 S 
ATOM     84  O3S IDS d 502     -21.947  55.577 169.001  0.00  0.00    -0.572 OA
ATOM     85  O2S IDS d 502     -24.254  56.259 168.776  0.00  0.00    -0.572 OA
ATOM     86  O1S IDS d 502     -23.653  53.946 168.650  0.00  0.00    -0.572 OA
ENDBRANCH  82  83
ENDBRANCH  76  82
BRANCH  77  87
ATOM     87  O1  IDS d 502     -25.931  56.471 172.997  0.00  0.00    -0.368 OA
ATOM     88  H   IDS d 502     -26.564  56.077 173.618  0.00  0.00     0.212 HD
ENDBRANCH  77  87
BRANCH  79  89
ATOM     89  C6  IDS d 502     -23.748  53.662 175.202  0.00  0.00     0.206 C 
ATOM     90  O61 IDS d 502     -22.970  53.763 176.118  0.00  0.00    -0.646 OA
ATOM     91  O62 IDS d 502     -24.383  52.629 175.109  0.00  0.00    -0.646 OA
ENDBRANCH  79  89
ENDBRANCH  73  74
ENDBRANCH  64  73
BRANCH  65  92
ATOM     92  N   SGN d 503     -21.202  52.870 170.536  0.00  0.00    -0.210 NA
ATOM     93  H   SGN d 503     -20.680  52.397 169.799  0.00  0.00     0.140 HD
BRANCH  92  94
ATOM     94  S1  SGN d 503     -22.261  51.796 171.148  0.00  0.00     0.156 S 
BRANCH  94  95
ATOM     95  O2S SGN d 503     -23.557  52.459 171.283  0.00  0.00    -0.296 OA
ATOM     96  H   SGN d 503     -24.228  51.959 170.792  0.00  0.00     0.231 HD
ENDBRANCH  94  95
BRANCH  94  97
ATOM     97  O1S SGN d 503     -21.723  51.384 172.431  0.00  0.00    -0.296 OA
ATOM     98  H   SGN d 503     -21.012  51.989 172.692  0.00  0.00     0.231 HD
ENDBRANCH  94  97
BRANCH  94  99
ATOM     99  O3S SGN d 503     -22.249  50.727 170.174  0.00  0.00    -0.296 OA
ATOM    100  H   SGN d 503     -23.055  50.770 169.638  0.00  0.00     0.231 HD
ENDBRANCH  94  99
ENDBRANCH  92  94
ENDBRANCH  65  92
BRANCH  66 101
ATOM    101  O3  SGN d 503     -18.957  51.436 171.706  0.00  0.00    -0.391 OA
ATOM    102  H   SGN d 503     -19.291  51.377 170.798  0.00  0.00     0.210 HD
ENDBRANCH  66 101
ENDBRANCH  60  61
ENDBRANCH   3  60
TORSDOF 40
ENDMDL
MODEL 73
REMARK VINA RESULT:      -2.2      2.855     13.031
REMARK WARNING: 32 MAX_TORS EXCEEDED!!!
REMARK  40 active torsions:
REMARK  status: ('A' for Active; 'I' for Inactive)
REMARK    1 I    between atoms: C6_1  and  C5_8 
REMARK    2 I    between atoms: C6_1  and  O6_57 
REMARK    3 I    between atoms: O4_2  and  C4_49 
REMARK    4 I    between atoms: O6_3  and  C6_7 
REMARK    5 I    between atoms: O6_3  and  S2_58 
REMARK    6 I    between atoms: S_4  and  O2_6 
REMARK    7 I    between atoms: O3_5  and  C3_81 
REMARK    8 I    between atoms: O2_6  and  C2_11 
REMARK    9 I    between atoms: C6_7  and  C5_54 
REMARK   10 I    between atoms: O4_9  and  C4_32 
REMARK   11 I    between atoms: O4_9  and  C1_39 
REMARK   12 I    between atoms: O3_12  and  C3_18 
REMARK   13 I    between atoms: N_13  and  C2_52 
REMARK   14 I    between atoms: N_13  and  S1_45 
REMARK   15 I    between atoms: O3_17  and  C3_83 
REMARK   16 I    between atoms: C4_20  and  O4_44 
REMARK   17 I    between atoms: N_21  and  C2_66 
REMARK   18 I    between atoms: N_21  and  S1_53 
REMARK   19 I    between atoms: O3_22  and  C3_65 
REMARK   20 I    between atoms: C4_23  and  O4_74 
REMARK   21 I    between atoms: C1_25  and  O1_72 
REMARK   22 I    between atoms: C2_28  and  O2_69 
REMARK   23 I    between atoms: C4_33  and  O4_61 
REMARK   24 I    between atoms: O2S_34  and  S1_45 
REMARK   25 I    between atoms: C6_37  and  C5_47 
REMARK   26 I    between atoms: O2_38  and  C2_77 
REMARK   27 I    between atoms: O2_38  and  S_50 
REMARK   28 I    between atoms: O3S_40  and  S1_53 
REMARK   29 I    between atoms: O1S_42  and  S1_45 
REMARK   30 I    between atoms: O1S_43  and  S1_53 
REMARK   31 I    between atoms: O4_44  and  C1_46 
REMARK   32 I    between atoms: S1_45  and  O3S_60 
REMARK   33 I    between atoms: C6_48  and  C5_84 
REMARK   34 I    between atoms: C6_51  and  C5_87 
REMARK   35 I    between atoms: S1_53  and  O2S_55 
REMARK   36 I    between atoms: C1_56  and  O4_74 
REMARK   37 I    between atoms: O6_57  and  S2_82 
REMARK   38 I    between atoms: O4_61  and  C1_70 
REMARK   39 I    between atoms: C3_63  and  O3_79 
REMARK   40 I    between atoms: O2_69  and  S_76 
ROOT
ATOM      1  C3  IDS d 504     -15.678  47.506 173.901  0.00  0.00     0.185 C 
ATOM      2  C4  IDS d 504     -15.338  48.911 174.373  0.00  0.00     0.195 C 
ATOM      3  C1  IDS d 504     -14.063  47.907 171.941  0.00  0.00     0.294 C 
ATOM      4  O5  IDS d 504     -13.867  49.214 172.491  0.00  0.00    -0.340 OA
ATOM      5  C2  IDS d 504     -15.397  47.322 172.360  0.00  0.00     0.231 C 
ATOM      6  C5  IDS d 504     -13.930  49.266 173.899  0.00  0.00     0.257 C 
ENDROOT
BRANCH   2   7
ATOM      7  O4  IDS d 504     -16.280  49.827 173.835  0.00  0.00    -0.348 OA
BRANCH   7   8
ATOM      8  C1  SGN d 505     -17.403  50.030 174.650  0.00  0.00     0.282 C 
ATOM      9  O5  SGN d 505     -17.080  50.864 175.727  0.00  0.00    -0.349 OA
ATOM     10  C5  SGN d 505     -16.719  52.157 175.347  0.00  0.00     0.181 C 
ATOM     11  C4  SGN d 505     -17.877  52.854 174.711  0.00  0.00     0.186 C 
ATOM     12  C3  SGN d 505     -18.213  52.065 173.413  0.00  0.00     0.173 C 
ATOM     13  C2  SGN d 505     -18.555  50.634 173.872  0.00  0.00     0.157 C 
BRANCH  10  14
ATOM     14  C6  SGN d 505     -16.241  52.839 176.588  0.00  0.00     0.227 C 
BRANCH  14  15
ATOM     15  O6  SGN d 505     -16.239  51.856 177.566  0.00  0.00    -0.254 OA
BRANCH  15  16
ATOM     16  S2  SGN d 505     -15.047  51.360 178.370  0.00  0.00     0.251 S 
ATOM     17  O5S SGN d 505     -13.962  52.228 177.983  0.00  0.00    -0.572 OA
ATOM     18  O4S SGN d 505     -14.882  49.981 177.972  0.00  0.00    -0.572 OA
ATOM     19  O6S SGN d 505     -15.397  51.501 179.777  0.00  0.00    -0.572 OA
ENDBRANCH  15  16
ENDBRANCH  14  15
ENDBRANCH  10  14
BRANCH  11  20
ATOM     20  O4  SGN d 505     -17.464  54.191 174.521  0.00  0.00    -0.348 OA
BRANCH  20  21
ATOM     21  C1  IDS d 506     -18.341  55.237 174.273  0.00  0.00     0.294 C 
ATOM     22  C2  IDS d 506     -17.534  56.534 174.113  0.00  0.00     0.231 C 
ATOM     23  C3  IDS d 506     -18.412  57.815 174.169  0.00  0.00     0.185 C 
ATOM     24  C4  IDS d 506     -19.569  57.731 175.188  0.00  0.00     0.189 C 
ATOM     25  C5  IDS d 506     -20.180  56.326 175.202  0.00  0.00     0.256 C 
ATOM     26  O5  IDS d 506     -19.185  55.374 175.388  0.00  0.00    -0.340 OA
BRANCH  22  27
ATOM     27  O2  IDS d 506     -16.582  56.645 175.153  0.00  0.00    -0.244 OA
BRANCH  27  28
ATOM     28  S   IDS d 506     -15.004  56.790 175.030  0.00  0.00     0.252 S 
ATOM     29  O1S IDS d 506     -14.630  55.900 173.974  0.00  0.00    -0.572 OA
ATOM     30  O2S IDS d 506     -14.706  58.152 174.687  0.00  0.00    -0.572 OA
ATOM     31  O3S IDS d 506     -14.478  56.397 176.320  0.00  0.00    -0.572 OA
ENDBRANCH  27  28
ENDBRANCH  22  27
BRANCH  23  32
ATOM     32  O3  IDS d 506     -18.965  58.041 172.875  0.00  0.00    -0.390 OA
ATOM     33  H   IDS d 506     -19.805  57.561 172.793  0.00  0.00     0.210 HD
ENDBRANCH  23  32
BRANCH  24  34
ATOM     34  O4  IDS d 506     -19.031  58.028 176.456  0.00  0.00    -0.390 OA
ATOM     35  H   IDS d 506     -18.724  57.210 176.877  0.00  0.00     0.210 HD
ENDBRANCH  24  34
BRANCH  25  36
ATOM     36  C6  IDS d 506     -21.301  56.083 176.195  0.00  0.00     0.206 C 
ATOM     37  O62 IDS d 506     -21.299  56.584 177.307  0.00  0.00    -0.646 OA
ATOM     38  O61 IDS d 506     -22.251  55.378 175.885  0.00  0.00    -0.646 OA
ENDBRANCH  25  36
ENDBRANCH  20  21
ENDBRANCH  11  20
BRANCH  12  39
ATOM     39  O3  SGN d 505     -19.356  52.618 172.774  0.00  0.00    -0.391 OA
ATOM     40  H   SGN d 505     -19.839  53.178 173.402  0.00  0.00     0.210 HD
ENDBRANCH  12  39
BRANCH  13  41
ATOM     41  N   SGN d 505     -18.959  49.702 172.794  0.00  0.00    -0.210 NA
ATOM     42  H   SGN d 505     -18.365  48.876 172.865  0.00  0.00     0.140 HD
BRANCH  41  43
ATOM     43  S1  SGN d 505     -20.550  49.175 172.783  0.00  0.00     0.156 S 
BRANCH  43  44
ATOM     44  O3S SGN d 505     -20.587  47.985 172.010  0.00  0.00    -0.296 OA
ATOM     45  H   SGN d 505     -20.269  48.173 171.113  0.00  0.00     0.231 HD
ENDBRANCH  43  44
BRANCH  43  46
ATOM     46  O1S SGN d 505     -20.953  48.968 174.158  0.00  0.00    -0.296 OA
ATOM     47  H   SGN d 505     -20.673  49.727 174.694  0.00  0.00     0.231 HD
ENDBRANCH  43  46
BRANCH  43  48
ATOM     48  O2S SGN d 505     -21.290  50.239 172.146  0.00  0.00    -0.296 OA
ATOM     49  H   SGN d 505     -20.752  50.630 171.440  0.00  0.00     0.231 HD
ENDBRANCH  43  48
ENDBRANCH  41  43
ENDBRANCH  13  41
ENDBRANCH   7   8
ENDBRANCH   2   7
BRANCH   1  50
ATOM     50  O3  IDS d 504     -14.864  46.607 174.644  0.00  0.00    -0.390 OA
ATOM     51  H   IDS d 504     -15.351  46.302 175.426  0.00  0.00     0.210 HD
ENDBRANCH   1  50
BRANCH   6  52
ATOM     52  C6  IDS d 504     -13.388  50.611 174.411  0.00  0.00     0.206 C 
ATOM     53  O62 IDS d 504     -13.593  51.657 173.793  0.00  0.00    -0.646 OA
ATOM     54  O61 IDS d 504     -12.724  50.671 175.438  0.00  0.00    -0.646 OA
ENDBRANCH   6  52
BRANCH   5  55
ATOM     55  O2  IDS d 504     -16.422  47.946 171.589  0.00  0.00    -0.244 OA
BRANCH  55  56
ATOM     56  S   IDS d 504     -17.371  47.257 170.592  0.00  0.00     0.252 S 
ATOM     57  O2S IDS d 504     -18.301  48.244 170.125  0.00  0.00    -0.572 OA
ATOM     58  O3S IDS d 504     -16.500  46.745 169.601  0.00  0.00    -0.572 OA
ATOM     59  O1S IDS d 504     -18.023  46.223 171.309  0.00  0.00    -0.572 OA
ENDBRANCH  55  56
ENDBRANCH   5  55
BRANCH   3  60
ATOM     60  O4  SGN d 503     -13.055  47.012 172.313  0.00  0.00    -0.348 OA
BRANCH  60  61
ATOM     61  C4  SGN d 503     -12.308  46.525 171.245  0.00  0.00     0.186 C 
ATOM     62  C5  SGN d 503     -11.729  45.153 171.634  0.00  0.00     0.181 C 
ATOM     63  O5  SGN d 503     -10.885  44.666 170.638  0.00  0.00    -0.349 OA
ATOM     64  C1  SGN d 503      -9.769  45.488 170.402  0.00  0.00     0.282 C 
ATOM     65  C2  SGN d 503     -10.241  46.875 169.944  0.00  0.00     0.157 C 
ATOM     66  C3  SGN d 503     -11.179  47.509 170.954  0.00  0.00     0.173 C 
BRANCH  62  67
ATOM     67  C6  SGN d 503     -12.760  44.073 171.819  0.00  0.00     0.227 C 
BRANCH  67  68
ATOM     68  O6  SGN d 503     -12.475  43.417 173.035  0.00  0.00    -0.254 OA
BRANCH  68  69
ATOM     69  S2  SGN d 503     -13.338  43.487 174.323  0.00  0.00     0.251 S 
ATOM     70  O6S SGN d 503     -12.814  44.597 175.018  0.00  0.00    -0.572 OA
ATOM     71  O4S SGN d 503     -14.686  43.739 173.944  0.00  0.00    -0.572 OA
ATOM     72  O5S SGN d 503     -13.193  42.205 175.005  0.00  0.00    -0.572 OA
ENDBRANCH  68  69
ENDBRANCH  67  68
ENDBRANCH  62  67
BRANCH  64  73
ATOM     73  O4  IDS d 502      -8.955  45.586 171.539  0.00  0.00    -0.348 OA
BRANCH  73  74
ATOM     74  C4  IDS d 502      -8.165  44.454 171.797  0.00  0.00     0.195 C 
ATOM     75  C3  IDS d 502      -6.836  44.564 171.026  0.00  0.00     0.185 C 
ATOM     76  C2  IDS d 502      -5.949  45.664 171.616  0.00  0.00     0.231 C 
ATOM     77  C1  IDS d 502      -5.844  45.555 173.134  0.00  0.00     0.291 C 
ATOM     78  O5  IDS d 502      -7.113  45.458 173.729  0.00  0.00    -0.340 OA
ATOM     79  C5  IDS d 502      -7.888  44.358 173.296  0.00  0.00     0.257 C 
BRANCH  75  80
ATOM     80  O3  IDS d 502      -6.141  43.336 171.131  0.00  0.00    -0.390 OA
ATOM     81  H   IDS d 502      -5.648  43.315 171.965  0.00  0.00     0.210 HD
ENDBRANCH  75  80
BRANCH  76  82
ATOM     82  O2  IDS d 502      -6.549  46.893 171.309  0.00  0.00    -0.244 OA
BRANCH  82  83
ATOM     83  S   IDS d 502      -5.863  48.178 170.738  0.00  0.00     0.252 S 
ATOM     84  O3S IDS d 502      -6.794  49.243 171.008  0.00  0.00    -0.572 OA
ATOM     85  O2S IDS d 502      -5.660  47.924 169.330  0.00  0.00    -0.572 OA
ATOM     86  O1S IDS d 502      -4.625  48.350 171.446  0.00  0.00    -0.572 OA
ENDBRANCH  82  83
ENDBRANCH  76  82
BRANCH  77  87
ATOM     87  O1  IDS d 502      -5.022  44.458 173.433  0.00  0.00    -0.368 OA
ATOM     88  H   IDS d 502      -4.223  44.494 172.884  0.00  0.00     0.212 HD
ENDBRANCH  77  87
BRANCH  79  89
ATOM     89  C6  IDS d 502      -9.137  44.208 174.153  0.00  0.00     0.206 C 
ATOM     90  O61 IDS d 502      -9.643  45.160 174.695  0.00  0.00    -0.646 OA
ATOM     91  O62 IDS d 502      -9.662  43.123 174.310  0.00  0.00    -0.646 OA
ENDBRANCH  79  89
ENDBRANCH  73  74
ENDBRANCH  64  73
BRANCH  65  92
ATOM     92  N   SGN d 503      -9.102  47.733 169.667  0.00  0.00    -0.210 NA
ATOM     93  H   SGN d 503      -8.259  47.196 169.867  0.00  0.00     0.140 HD
BRANCH  92  94
ATOM     94  S1  SGN d 503      -8.955  48.325 168.158  0.00  0.00     0.156 S 
BRANCH  94  95
ATOM     95  O2S SGN d 503      -7.881  49.318 168.159  0.00  0.00    -0.296 OA
ATOM     96  H   SGN d 503      -8.023  49.946 168.885  0.00  0.00     0.231 HD
ENDBRANCH  94  95
BRANCH  94  97
ATOM     97  O1S SGN d 503     -10.239  48.913 167.826  0.00  0.00    -0.296 OA
ATOM     98  H   SGN d 503     -10.118  49.850 167.605  0.00  0.00     0.231 HD
ENDBRANCH  94  97
BRANCH  94  99
ATOM     99  O3S SGN d 503      -8.664  47.150 167.368  0.00  0.00    -0.296 OA
ATOM    100  H   SGN d 503      -8.935  46.358 167.856  0.00  0.00     0.231 HD
ENDBRANCH  94  99
ENDBRANCH  92  94
ENDBRANCH  65  92
BRANCH  66 101
ATOM    101  O3  SGN d 503     -11.748  48.685 170.411  0.00  0.00    -0.391 OA
ATOM    102  H   SGN d 503     -12.252  49.148 171.099  0.00  0.00     0.210 HD
ENDBRANCH  66 101
ENDBRANCH  60  61
ENDBRANCH   3  60
TORSDOF 40
ENDMDL
MODEL 74
REMARK VINA RESULT:      -2.2      3.802     12.997
REMARK WARNING: 32 MAX_TORS EXCEEDED!!!
REMARK  40 active torsions:
REMARK  status: ('A' for Active; 'I' for Inactive)
REMARK    1 I    between atoms: C6_1  and  C5_8 
REMARK    2 I    between atoms: C6_1  and  O6_57 
REMARK    3 I    between atoms: O4_2  and  C4_49 
REMARK    4 I    between atoms: O6_3  and  C6_7 
REMARK    5 I    between atoms: O6_3  and  S2_58 
REMARK    6 I    between atoms: S_4  and  O2_6 
REMARK    7 I    between atoms: O3_5  and  C3_81 
REMARK    8 I    between atoms: O2_6  and  C2_11 
REMARK    9 I    between atoms: C6_7  and  C5_54 
REMARK   10 I    between atoms: O4_9  and  C4_32 
REMARK   11 I    between atoms: O4_9  and  C1_39 
REMARK   12 I    between atoms: O3_12  and  C3_18 
REMARK   13 I    between atoms: N_13  and  C2_52 
REMARK   14 I    between atoms: N_13  and  S1_45 
REMARK   15 I    between atoms: O3_17  and  C3_83 
REMARK   16 I    between atoms: C4_20  and  O4_44 
REMARK   17 I    between atoms: N_21  and  C2_66 
REMARK   18 I    between atoms: N_21  and  S1_53 
REMARK   19 I    between atoms: O3_22  and  C3_65 
REMARK   20 I    between atoms: C4_23  and  O4_74 
REMARK   21 I    between atoms: C1_25  and  O1_72 
REMARK   22 I    between atoms: C2_28  and  O2_69 
REMARK   23 I    between atoms: C4_33  and  O4_61 
REMARK   24 I    between atoms: O2S_34  and  S1_45 
REMARK   25 I    between atoms: C6_37  and  C5_47 
REMARK   26 I    between atoms: O2_38  and  C2_77 
REMARK   27 I    between atoms: O2_38  and  S_50 
REMARK   28 I    between atoms: O3S_40  and  S1_53 
REMARK   29 I    between atoms: O1S_42  and  S1_45 
REMARK   30 I    between atoms: O1S_43  and  S1_53 
REMARK   31 I    between atoms: O4_44  and  C1_46 
REMARK   32 I    between atoms: S1_45  and  O3S_60 
REMARK   33 I    between atoms: C6_48  and  C5_84 
REMARK   34 I    between atoms: C6_51  and  C5_87 
REMARK   35 I    between atoms: S1_53  and  O2S_55 
REMARK   36 I    between atoms: C1_56  and  O4_74 
REMARK   37 I    between atoms: O6_57  and  S2_82 
REMARK   38 I    between atoms: O4_61  and  C1_70 
REMARK   39 I    between atoms: C3_63  and  O3_79 
REMARK   40 I    between atoms: O2_69  and  S_76 
ROOT
ATOM      1  C3  IDS d 504     -13.999  46.251 172.848  0.00  0.00     0.185 C 
ATOM      2  C4  IDS d 504     -14.718  47.242 173.751  0.00  0.00     0.195 C 
ATOM      3  C1  IDS d 504     -12.515  48.209 172.090  0.00  0.00     0.294 C 
ATOM      4  O5  IDS d 504     -13.303  49.023 172.964  0.00  0.00    -0.340 OA
ATOM      5  C2  IDS d 504     -13.273  46.973 171.649  0.00  0.00     0.231 C 
ATOM      6  C5  IDS d 504     -13.751  48.363 174.126  0.00  0.00     0.257 C 
ENDROOT
BRANCH   2   7
ATOM      7  O4  IDS d 504     -15.840  47.774 173.062  0.00  0.00    -0.348 OA
BRANCH   7   8
ATOM      8  C1  SGN d 505     -17.026  47.056 173.270  0.00  0.00     0.282 C 
ATOM      9  O5  SGN d 505     -17.770  47.632 174.307  0.00  0.00    -0.349 OA
ATOM     10  C5  SGN d 505     -18.219  48.922 174.026  0.00  0.00     0.181 C 
ATOM     11  C4  SGN d 505     -19.184  48.900 172.885  0.00  0.00     0.186 C 
ATOM     12  C3  SGN d 505     -18.391  48.403 171.642  0.00  0.00     0.173 C 
ATOM     13  C2  SGN d 505     -17.871  47.000 172.013  0.00  0.00     0.157 C 
BRANCH  10  14
ATOM     14  C6  SGN d 505     -18.827  49.438 175.290  0.00  0.00     0.227 C 
BRANCH  14  15
ATOM     15  O6  SGN d 505     -19.903  48.601 175.543  0.00  0.00    -0.254 OA
BRANCH  15  16
ATOM     16  S2  SGN d 505     -20.302  47.992 176.879  0.00  0.00     0.251 S 
ATOM     17  O5S SGN d 505     -20.913  49.077 177.604  0.00  0.00    -0.572 OA
ATOM     18  O4S SGN d 505     -19.062  47.513 177.449  0.00  0.00    -0.572 OA
ATOM     19  O6S SGN d 505     -21.240  46.915 176.591  0.00  0.00    -0.572 OA
ENDBRANCH  15  16
ENDBRANCH  14  15
ENDBRANCH  10  14
BRANCH  11  20
ATOM     20  O4  SGN d 505     -19.701  50.211 172.793  0.00  0.00    -0.348 OA
BRANCH  20  21
ATOM     21  C1  IDS d 506     -21.034  50.494 172.538  0.00  0.00     0.294 C 
ATOM     22  C2  IDS d 506     -21.188  52.005 172.314  0.00  0.00     0.231 C 
ATOM     23  C3  IDS d 506     -22.665  52.486 172.355  0.00  0.00     0.185 C 
ATOM     24  C4  IDS d 506     -23.525  51.759 173.411  0.00  0.00     0.189 C 
ATOM     25  C5  IDS d 506     -23.152  50.275 173.487  0.00  0.00     0.256 C 
ATOM     26  O5  IDS d 506     -21.782  50.136 173.673  0.00  0.00    -0.340 OA
BRANCH  22  27
ATOM     27  O2  IDS d 506     -20.497  52.719 173.320  0.00  0.00    -0.244 OA
BRANCH  27  28
ATOM     28  S   IDS d 506     -19.397  53.852 173.144  0.00  0.00     0.252 S 
ATOM     29  O1S IDS d 506     -19.816  54.602 172.000  0.00  0.00    -0.572 OA
ATOM     30  O2S IDS d 506     -19.401  54.666 174.326  0.00  0.00    -0.572 OA
ATOM     31  O3S IDS d 506     -18.148  53.150 172.938  0.00  0.00    -0.572 OA
ENDBRANCH  27  28
ENDBRANCH  22  27
BRANCH  23  32
ATOM     32  O3  IDS d 506     -23.247  52.272 171.072  0.00  0.00    -0.390 OA
ATOM     33  H   IDS d 506     -23.485  53.126 170.679  0.00  0.00     0.210 HD
ENDBRANCH  23  32
BRANCH  24  34
ATOM     34  O4  IDS d 506     -23.275  52.377 174.652  0.00  0.00    -0.390 OA
ATOM     35  H   IDS d 506     -23.265  51.705 175.352  0.00  0.00     0.210 HD
ENDBRANCH  24  34
BRANCH  25  36
ATOM     36  C6  IDS d 506     -23.887  49.442 174.521  0.00  0.00     0.206 C 
ATOM     37  O62 IDS d 506     -24.858  49.868 175.122  0.00  0.00    -0.646 OA
ATOM     38  O61 IDS d 506     -23.518  48.301 174.762  0.00  0.00    -0.646 OA
ENDBRANCH  25  36
ENDBRANCH  20  21
ENDBRANCH  11  20
BRANCH  12  39
ATOM     39  O3  SGN d 505     -19.252  48.281 170.517  0.00  0.00    -0.391 OA
ATOM     40  H   SGN d 505     -20.103  47.909 170.799  0.00  0.00     0.210 HD
ENDBRANCH  12  39
BRANCH  13  41
ATOM     41  N   SGN d 505     -17.117  46.301 170.947  0.00  0.00    -0.210 NA
ATOM     42  H   SGN d 505     -16.134  46.550 171.053  0.00  0.00     0.140 HD
BRANCH  41  43
ATOM     43  S1  SGN d 505     -17.208  44.628 170.905  0.00  0.00     0.156 S 
BRANCH  43  44
ATOM     44  O3S SGN d 505     -15.971  44.159 170.390  0.00  0.00    -0.296 OA
ATOM     45  H   SGN d 505     -15.348  44.899 170.322  0.00  0.00     0.231 HD
ENDBRANCH  43  44
BRANCH  43  46
ATOM     46  O1S SGN d 505     -17.469  44.170 172.254  0.00  0.00    -0.296 OA
ATOM     47  H   SGN d 505     -17.012  44.746 172.885  0.00  0.00     0.231 HD
ENDBRANCH  43  46
BRANCH  43  48
ATOM     48  O2S SGN d 505     -18.298  44.337 170.003  0.00  0.00    -0.296 OA
ATOM     49  H   SGN d 505     -18.894  45.101 169.959  0.00  0.00     0.231 HD
ENDBRANCH  43  48
ENDBRANCH  41  43
ENDBRANCH  13  41
ENDBRANCH   7   8
ENDBRANCH   2   7
BRANCH   1  50
ATOM     50  O3  IDS d 504     -13.037  45.577 173.651  0.00  0.00    -0.390 OA
ATOM     51  H   IDS d 504     -12.454  45.050 173.082  0.00  0.00     0.210 HD
ENDBRANCH   1  50
BRANCH   6  52
ATOM     52  C6  IDS d 504     -14.293  49.378 175.146  0.00  0.00     0.206 C 
ATOM     53  O62 IDS d 504     -14.941  49.010 176.128  0.00  0.00    -0.646 OA
ATOM     54  O61 IDS d 504     -14.108  50.579 174.998  0.00  0.00    -0.646 OA
ENDBRANCH   6  52
BRANCH   5  55
ATOM     55  O2  IDS d 504     -14.219  47.359 170.653  0.00  0.00    -0.244 OA
BRANCH  55  56
ATOM     56  S   IDS d 504     -14.133  47.072 169.143  0.00  0.00     0.252 S 
ATOM     57  O2S IDS d 504     -13.855  45.675 168.982  0.00  0.00    -0.572 OA
ATOM     58  O3S IDS d 504     -15.393  47.489 168.653  0.00  0.00    -0.572 OA
ATOM     59  O1S IDS d 504     -13.079  47.876 168.643  0.00  0.00    -0.572 OA
ENDBRANCH  55  56
ENDBRANCH   5  55
BRANCH   3  60
ATOM     60  O4  SGN d 503     -11.313  47.801 172.677  0.00  0.00    -0.348 OA
BRANCH  60  61
ATOM     61  C4  SGN d 503     -10.261  48.692 172.490  0.00  0.00     0.186 C 
ATOM     62  C5  SGN d 503      -9.032  47.908 171.998  0.00  0.00     0.181 C 
ATOM     63  O5  SGN d 503      -7.917  48.737 171.896  0.00  0.00    -0.349 OA
ATOM     64  C1  SGN d 503      -7.529  49.304 173.122  0.00  0.00     0.282 C 
ATOM     65  C2  SGN d 503      -8.674  50.167 173.674  0.00  0.00     0.157 C 
ATOM     66  C3  SGN d 503      -9.955  49.366 173.825  0.00  0.00     0.173 C 
BRANCH  62  67
ATOM     67  C6  SGN d 503      -9.185  47.308 170.626  0.00  0.00     0.227 C 
BRANCH  67  68
ATOM     68  O6  SGN d 503      -9.524  48.353 169.741  0.00  0.00    -0.254 OA
BRANCH  68  69
ATOM     69  S2  SGN d 503      -9.109  48.442 168.248  0.00  0.00     0.251 S 
ATOM     70  O6S SGN d 503      -8.866  47.100 167.887  0.00  0.00    -0.572 OA
ATOM     71  O4S SGN d 503     -10.211  48.956 167.508  0.00  0.00    -0.572 OA
ATOM     72  O5S SGN d 503      -7.947  49.323 168.180  0.00  0.00    -0.572 OA
ENDBRANCH  68  69
ENDBRANCH  67  68
ENDBRANCH  62  67
BRANCH  64  73
ATOM     73  O4  IDS d 502      -7.154  48.320 174.047  0.00  0.00    -0.348 OA
BRANCH  73  74
ATOM     74  C4  IDS d 502      -6.100  47.491 173.628  0.00  0.00     0.195 C 
ATOM     75  C3  IDS d 502      -4.773  48.271 173.691  0.00  0.00     0.185 C 
ATOM     76  C2  IDS d 502      -4.361  48.535 175.143  0.00  0.00     0.231 C 
ATOM     77  C1  IDS d 502      -4.447  47.273 175.997  0.00  0.00     0.291 C 
ATOM     78  O5  IDS d 502      -5.697  46.646 175.858  0.00  0.00    -0.340 OA
ATOM     79  C5  IDS d 502      -6.026  46.266 174.536  0.00  0.00     0.257 C 
BRANCH  75  80
ATOM     80  O3  IDS d 502      -3.757  47.499 173.081  0.00  0.00    -0.390 OA
ATOM     81  H   IDS d 502      -2.898  47.732 173.466  0.00  0.00     0.210 HD
ENDBRANCH  75  80
BRANCH  76  82
ATOM     82  O2  IDS d 502      -5.260  49.476 175.666  0.00  0.00    -0.244 OA
BRANCH  82  83
ATOM     83  S   IDS d 502      -5.012  51.001 175.914  0.00  0.00     0.252 S 
ATOM     84  O3S IDS d 502      -3.607  51.101 176.214  0.00  0.00    -0.572 OA
ATOM     85  O2S IDS d 502      -5.871  51.365 177.017  0.00  0.00    -0.572 OA
ATOM     86  O1S IDS d 502      -5.357  51.691 174.702  0.00  0.00    -0.572 OA
ENDBRANCH  82  83
ENDBRANCH  76  82
BRANCH  77  87
ATOM     87  O1  IDS d 502      -3.380  46.436 175.638  0.00  0.00    -0.368 OA
ATOM     88  H   IDS d 502      -2.626  46.605 176.224  0.00  0.00     0.212 HD
ENDBRANCH  77  87
BRANCH  79  89
ATOM     89  C6  IDS d 502      -7.278  45.401 174.521  0.00  0.00     0.206 C 
ATOM     90  O61 IDS d 502      -7.382  44.462 173.769  0.00  0.00    -0.646 OA
ATOM     91  O62 IDS d 502      -8.207  45.630 175.270  0.00  0.00    -0.646 OA
ENDBRANCH  79  89
ENDBRANCH  73  74
ENDBRANCH  64  73
BRANCH  65  92
ATOM     92  N   SGN d 503      -8.286  50.786 174.928  0.00  0.00    -0.210 NA
ATOM     93  H   SGN d 503      -7.271  50.886 174.918  0.00  0.00     0.140 HD
BRANCH  92  94
ATOM     94  S1  SGN d 503      -8.915  52.247 175.274  0.00  0.00     0.156 S 
BRANCH  94  95
ATOM     95  O2S SGN d 503      -7.831  53.113 175.736  0.00  0.00    -0.296 OA
ATOM     96  H   SGN d 503      -7.355  52.676 176.460  0.00  0.00     0.231 HD
ENDBRANCH  94  95
BRANCH  94  97
ATOM     97  O1S SGN d 503      -9.911  52.024 176.304  0.00  0.00    -0.296 OA
ATOM     98  H   SGN d 503     -10.041  52.842 176.810  0.00  0.00     0.231 HD
ENDBRANCH  94  97
BRANCH  94  99
ATOM     99  O3S SGN d 503      -9.500  52.661 174.019  0.00  0.00    -0.296 OA
ATOM    100  H   SGN d 503      -8.949  52.345 173.286  0.00  0.00     0.231 HD
ENDBRANCH  94  99
ENDBRANCH  92  94
ENDBRANCH  65  92
BRANCH  66 101
ATOM    101  O3  SGN d 503     -11.030  50.231 174.139  0.00  0.00    -0.391 OA
ATOM    102  H   SGN d 503     -11.509  50.458 173.328  0.00  0.00     0.210 HD
ENDBRANCH  66 101
ENDBRANCH  60  61
ENDBRANCH   3  60
TORSDOF 40
ENDMDL
MODEL 75
REMARK VINA RESULT:      -2.1      3.410      6.204
REMARK WARNING: 32 MAX_TORS EXCEEDED!!!
REMARK  40 active torsions:
REMARK  status: ('A' for Active; 'I' for Inactive)
REMARK    1 I    between atoms: C6_1  and  C5_8 
REMARK    2 I    between atoms: C6_1  and  O6_57 
REMARK    3 I    between atoms: O4_2  and  C4_49 
REMARK    4 I    between atoms: O6_3  and  C6_7 
REMARK    5 I    between atoms: O6_3  and  S2_58 
REMARK    6 I    between atoms: S_4  and  O2_6 
REMARK    7 I    between atoms: O3_5  and  C3_81 
REMARK    8 I    between atoms: O2_6  and  C2_11 
REMARK    9 I    between atoms: C6_7  and  C5_54 
REMARK   10 I    between atoms: O4_9  and  C4_32 
REMARK   11 I    between atoms: O4_9  and  C1_39 
REMARK   12 I    between atoms: O3_12  and  C3_18 
REMARK   13 I    between atoms: N_13  and  C2_52 
REMARK   14 I    between atoms: N_13  and  S1_45 
REMARK   15 I    between atoms: O3_17  and  C3_83 
REMARK   16 I    between atoms: C4_20  and  O4_44 
REMARK   17 I    between atoms: N_21  and  C2_66 
REMARK   18 I    between atoms: N_21  and  S1_53 
REMARK   19 I    between atoms: O3_22  and  C3_65 
REMARK   20 I    between atoms: C4_23  and  O4_74 
REMARK   21 I    between atoms: C1_25  and  O1_72 
REMARK   22 I    between atoms: C2_28  and  O2_69 
REMARK   23 I    between atoms: C4_33  and  O4_61 
REMARK   24 I    between atoms: O2S_34  and  S1_45 
REMARK   25 I    between atoms: C6_37  and  C5_47 
REMARK   26 I    between atoms: O2_38  and  C2_77 
REMARK   27 I    between atoms: O2_38  and  S_50 
REMARK   28 I    between atoms: O3S_40  and  S1_53 
REMARK   29 I    between atoms: O1S_42  and  S1_45 
REMARK   30 I    between atoms: O1S_43  and  S1_53 
REMARK   31 I    between atoms: O4_44  and  C1_46 
REMARK   32 I    between atoms: S1_45  and  O3S_60 
REMARK   33 I    between atoms: C6_48  and  C5_84 
REMARK   34 I    between atoms: C6_51  and  C5_87 
REMARK   35 I    between atoms: S1_53  and  O2S_55 
REMARK   36 I    between atoms: C1_56  and  O4_74 
REMARK   37 I    between atoms: O6_57  and  S2_82 
REMARK   38 I    between atoms: O4_61  and  C1_70 
REMARK   39 I    between atoms: C3_63  and  O3_79 
REMARK   40 I    between atoms: O2_69  and  S_76 
ROOT
ATOM      1  C3  IDS d 504     -16.966  46.357 170.484  0.00  0.00     0.185 C 
ATOM      2  C4  IDS d 504     -15.756  47.274 170.563  0.00  0.00     0.195 C 
ATOM      3  C1  IDS d 504     -17.685  47.315 172.759  0.00  0.00     0.294 C 
ATOM      4  O5  IDS d 504     -16.487  48.096 172.704  0.00  0.00    -0.340 OA
ATOM      5  C2  IDS d 504     -17.573  46.064 171.910  0.00  0.00     0.231 C 
ATOM      6  C5  IDS d 504     -16.114  48.496 171.405  0.00  0.00     0.257 C 
ENDROOT
BRANCH   2   7
ATOM      7  O4  IDS d 504     -14.673  46.572 171.156  0.00  0.00    -0.348 OA
BRANCH   7   8
ATOM      8  C1  SGN d 505     -13.876  45.877 170.237  0.00  0.00     0.282 C 
ATOM      9  O5  SGN d 505     -12.959  46.744 169.632  0.00  0.00    -0.349 OA
ATOM     10  C5  SGN d 505     -12.030  47.286 170.520  0.00  0.00     0.181 C 
ATOM     11  C4  SGN d 505     -11.160  46.210 171.084  0.00  0.00     0.186 C 
ATOM     12  C3  SGN d 505     -12.091  45.269 171.903  0.00  0.00     0.173 C 
ATOM     13  C2  SGN d 505     -13.129  44.734 170.898  0.00  0.00     0.157 C 
BRANCH  10  14
ATOM     14  C6  SGN d 505     -11.260  48.309 169.748  0.00  0.00     0.227 C 
BRANCH  14  15
ATOM     15  O6  SGN d 505     -10.420  47.581 168.919  0.00  0.00    -0.254 OA
BRANCH  15  16
ATOM     16  S2  SGN d 505      -9.584  48.108 167.762  0.00  0.00     0.251 S 
ATOM     17  O5S SGN d 505      -8.819  49.190 168.331  0.00  0.00    -0.572 OA
ATOM     18  O4S SGN d 505     -10.550  48.516 166.767  0.00  0.00    -0.572 OA
ATOM     19  O6S SGN d 505      -8.742  47.008 167.311  0.00  0.00    -0.572 OA
ENDBRANCH  15  16
ENDBRANCH  14  15
ENDBRANCH  10  14
BRANCH  11  20
ATOM     20  O4  SGN d 505     -10.159  46.875 171.827  0.00  0.00    -0.348 OA
BRANCH  20  21
ATOM     21  C1  IDS d 506      -8.875  46.381 171.996  0.00  0.00     0.294 C 
ATOM     22  C2  IDS d 506      -8.269  46.995 173.266  0.00  0.00     0.231 C 
ATOM     23  C3  IDS d 506      -6.733  46.787 173.379  0.00  0.00     0.185 C 
ATOM     24  C4  IDS d 506      -5.992  46.892 172.028  0.00  0.00     0.189 C 
ATOM     25  C5  IDS d 506      -6.818  46.256 170.906  0.00  0.00     0.256 C 
ATOM     26  O5  IDS d 506      -8.102  46.789 170.896  0.00  0.00    -0.340 OA
BRANCH  22  27
ATOM     27  O2  IDS d 506      -8.496  48.391 173.288  0.00  0.00    -0.244 OA
BRANCH  27  28
ATOM     28  S   IDS d 506      -9.464  49.216 174.240  0.00  0.00     0.252 S 
ATOM     29  O1S IDS d 506     -10.074  48.238 175.088  0.00  0.00    -0.572 OA
ATOM     30  O2S IDS d 506      -8.664  50.133 175.003  0.00  0.00    -0.572 OA
ATOM     31  O3S IDS d 506     -10.405  49.874 173.360  0.00  0.00    -0.572 OA
ENDBRANCH  27  28
ENDBRANCH  22  27
BRANCH  23  32
ATOM     32  O3  IDS d 506      -6.491  45.496 173.930  0.00  0.00    -0.390 OA
ATOM     33  H   IDS d 506      -6.957  45.413 174.777  0.00  0.00     0.210 HD
ENDBRANCH  23  32
BRANCH  24  34
ATOM     34  O4  IDS d 506      -5.802  48.261 171.761  0.00  0.00    -0.390 OA
ATOM     35  H   IDS d 506      -6.187  48.788 172.479  0.00  0.00     0.210 HD
ENDBRANCH  24  34
BRANCH  25  36
ATOM     36  C6  IDS d 506      -6.233  46.327 169.508  0.00  0.00     0.206 C 
ATOM     37  O62 IDS d 506      -6.083  45.334 168.818  0.00  0.00    -0.646 OA
ATOM     38  O61 IDS d 506      -5.909  47.408 169.035  0.00  0.00    -0.646 OA
ENDBRANCH  25  36
ENDBRANCH  20  21
ENDBRANCH  11  20
BRANCH  12  39
ATOM     39  O3  SGN d 505     -11.356  44.168 172.421  0.00  0.00    -0.391 OA
ATOM     40  H   SGN d 505     -10.602  43.980 171.841  0.00  0.00     0.210 HD
ENDBRANCH  12  39
BRANCH  13  41
ATOM     41  N   SGN d 505     -14.106  43.766 171.450  0.00  0.00    -0.210 NA
ATOM     42  H   SGN d 505     -15.028  44.030 171.102  0.00  0.00     0.140 HD
BRANCH  41  43
ATOM     43  S1  SGN d 505     -13.878  42.146 171.089  0.00  0.00     0.156 S 
BRANCH  43  44
ATOM     44  O3S SGN d 505     -14.720  41.845 169.987  0.00  0.00    -0.296 OA
ATOM     45  H   SGN d 505     -15.647  41.950 170.250  0.00  0.00     0.231 HD
ENDBRANCH  43  44
BRANCH  43  46
ATOM     46  O1S SGN d 505     -12.472  41.956 170.796  0.00  0.00    -0.296 OA
ATOM     47  H   SGN d 505     -12.369  41.697 169.867  0.00  0.00     0.231 HD
ENDBRANCH  43  46
BRANCH  43  48
ATOM     48  O2S SGN d 505     -14.293  41.438 172.277  0.00  0.00    -0.296 OA
ATOM     49  H   SGN d 505     -14.654  40.573 172.029  0.00  0.00     0.231 HD
ENDBRANCH  43  48
ENDBRANCH  41  43
ENDBRANCH  13  41
ENDBRANCH   7   8
ENDBRANCH   2   7
BRANCH   1  50
ATOM     50  O3  IDS d 504     -17.937  47.014 169.679  0.00  0.00    -0.390 OA
ATOM     51  H   IDS d 504     -17.675  47.939 169.548  0.00  0.00     0.210 HD
ENDBRANCH   1  50
BRANCH   6  52
ATOM     52  C6  IDS d 504     -15.031  49.586 171.468  0.00  0.00     0.206 C 
ATOM     53  O62 IDS d 504     -14.909  50.416 170.565  0.00  0.00    -0.646 OA
ATOM     54  O61 IDS d 504     -14.251  49.643 172.410  0.00  0.00    -0.646 OA
ENDBRANCH   6  52
BRANCH   5  55
ATOM     55  O2  IDS d 504     -16.766  45.119 172.611  0.00  0.00    -0.244 OA
BRANCH  55  56
ATOM     56  S   IDS d 504     -17.120  43.650 172.908  0.00  0.00     0.252 S 
ATOM     57  O2S IDS d 504     -17.103  42.939 171.664  0.00  0.00    -0.572 OA
ATOM     58  O3S IDS d 504     -16.128  43.250 173.836  0.00  0.00    -0.572 OA
ATOM     59  O1S IDS d 504     -18.413  43.660 173.488  0.00  0.00    -0.572 OA
ENDBRANCH  55  56
ENDBRANCH   5  55
BRANCH   3  60
ATOM     60  O4  SGN d 503     -18.811  48.031 172.339  0.00  0.00    -0.348 OA
BRANCH  60  61
ATOM     61  C4  SGN d 503     -19.385  48.816 173.333  0.00  0.00     0.186 C 
ATOM     62  C5  SGN d 503     -20.801  48.287 173.623  0.00  0.00     0.181 C 
ATOM     63  O5  SGN d 503     -21.463  49.104 174.538  0.00  0.00    -0.349 OA
ATOM     64  C1  SGN d 503     -21.644  50.421 174.080  0.00  0.00     0.282 C 
ATOM     65  C2  SGN d 503     -20.276  51.066 173.819  0.00  0.00     0.157 C 
ATOM     66  C3  SGN d 503     -19.455  50.257 172.832  0.00  0.00     0.173 C 
BRANCH  62  67
ATOM     67  C6  SGN d 503     -20.838  46.916 174.242  0.00  0.00     0.227 C 
BRANCH  67  68
ATOM     68  O6  SGN d 503     -20.902  47.084 175.642  0.00  0.00    -0.254 OA
BRANCH  68  69
ATOM     69  S2  SGN d 503     -19.871  46.538 176.665  0.00  0.00     0.251 S 
ATOM     70  O6S SGN d 503     -19.592  47.651 177.486  0.00  0.00    -0.572 OA
ATOM     71  O4S SGN d 503     -20.497  45.512 177.427  0.00  0.00    -0.572 OA
ATOM     72  O5S SGN d 503     -18.735  46.033 175.900  0.00  0.00    -0.572 OA
ENDBRANCH  68  69
ENDBRANCH  67  68
ENDBRANCH  62  67
BRANCH  64  73
ATOM     73  O4  IDS d 502     -22.444  50.458 172.930  0.00  0.00    -0.348 OA
BRANCH  73  74
ATOM     74  C4  IDS d 502     -23.807  50.697 173.169  0.00  0.00     0.195 C 
ATOM     75  C3  IDS d 502     -24.115  52.192 172.959  0.00  0.00     0.185 C 
ATOM     76  C2  IDS d 502     -24.021  52.568 171.477  0.00  0.00     0.231 C 
ATOM     77  C1  IDS d 502     -24.785  51.589 170.592  0.00  0.00     0.291 C 
ATOM     78  O5  IDS d 502     -24.426  50.259 170.872  0.00  0.00    -0.340 OA
ATOM     79  C5  IDS d 502     -24.646  49.855 172.209  0.00  0.00     0.257 C 
BRANCH  75  80
ATOM     80  O3  IDS d 502     -25.434  52.455 173.394  0.00  0.00    -0.390 OA
ATOM     81  H   IDS d 502     -25.692  53.349 173.123  0.00  0.00     0.210 HD
ENDBRANCH  75  80
BRANCH  76  82
ATOM     82  O2  IDS d 502     -22.666  52.512 171.119  0.00  0.00    -0.244 OA
BRANCH  82  83
ATOM     83  S   IDS d 502     -21.912  53.406 170.079  0.00  0.00     0.252 S 
ATOM     84  O3S IDS d 502     -21.658  52.534 168.961  0.00  0.00    -0.572 OA
ATOM     85  O2S IDS d 502     -20.715  53.863 170.746  0.00  0.00    -0.572 OA
ATOM     86  O1S IDS d 502     -22.791  54.488 169.732  0.00  0.00    -0.572 OA
ENDBRANCH  82  83
ENDBRANCH  76  82
BRANCH  77  87
ATOM     87  O1  IDS d 502     -26.156  51.827 170.769  0.00  0.00    -0.368 OA
ATOM     88  H   IDS d 502     -26.303  52.775 170.915  0.00  0.00     0.212 HD
ENDBRANCH  77  87
BRANCH  79  89
ATOM     89  C6  IDS d 502     -24.446  48.353 172.358  0.00  0.00     0.206 C 
ATOM     90  O61 IDS d 502     -24.053  47.679 171.437  0.00  0.00    -0.646 OA
ATOM     91  O62 IDS d 502     -24.673  47.793 173.413  0.00  0.00    -0.646 OA
ENDBRANCH  79  89
ENDBRANCH  73  74
ENDBRANCH  64  73
BRANCH  65  92
ATOM     92  N   SGN d 503     -20.438  52.439 173.372  0.00  0.00    -0.210 NA
ATOM     93  H   SGN d 503     -21.439  52.627 173.322  0.00  0.00     0.140 HD
BRANCH  92  94
ATOM     94  S1  SGN d 503     -19.767  53.611 174.279  0.00  0.00     0.156 S 
BRANCH  94  95
ATOM     95  O2S SGN d 503     -19.610  54.801 173.444  0.00  0.00    -0.296 OA
ATOM     96  H   SGN d 503     -19.809  54.576 172.521  0.00  0.00     0.231 HD
ENDBRANCH  94  95
BRANCH  94  97
ATOM     97  O1S SGN d 503     -18.490  53.091 174.731  0.00  0.00    -0.296 OA
ATOM     98  H   SGN d 503     -18.144  53.656 175.439  0.00  0.00     0.231 HD
ENDBRANCH  94  97
BRANCH  94  99
ATOM     99  O3S SGN d 503     -20.711  53.775 175.360  0.00  0.00    -0.296 OA
ATOM    100  H   SGN d 503     -21.525  54.178 175.020  0.00  0.00     0.231 HD
ENDBRANCH  94  99
ENDBRANCH  92  94
ENDBRANCH  65  92
BRANCH  66 101
ATOM    101  O3  SGN d 503     -18.136  50.766 172.771  0.00  0.00    -0.391 OA
ATOM    102  H   SGN d 503     -17.785  50.648 171.875  0.00  0.00     0.210 HD
ENDBRANCH  66 101
ENDBRANCH  60  61
ENDBRANCH   3  60
TORSDOF 40
ENDMDL
MODEL 76
REMARK VINA RESULT:      -2.1      4.423      6.100
REMARK WARNING: 32 MAX_TORS EXCEEDED!!!
REMARK  40 active torsions:
REMARK  status: ('A' for Active; 'I' for Inactive)
REMARK    1 I    between atoms: C6_1  and  C5_8 
REMARK    2 I    between atoms: C6_1  and  O6_57 
REMARK    3 I    between atoms: O4_2  and  C4_49 
REMARK    4 I    between atoms: O6_3  and  C6_7 
REMARK    5 I    between atoms: O6_3  and  S2_58 
REMARK    6 I    between atoms: S_4  and  O2_6 
REMARK    7 I    between atoms: O3_5  and  C3_81 
REMARK    8 I    between atoms: O2_6  and  C2_11 
REMARK    9 I    between atoms: C6_7  and  C5_54 
REMARK   10 I    between atoms: O4_9  and  C4_32 
REMARK   11 I    between atoms: O4_9  and  C1_39 
REMARK   12 I    between atoms: O3_12  and  C3_18 
REMARK   13 I    between atoms: N_13  and  C2_52 
REMARK   14 I    between atoms: N_13  and  S1_45 
REMARK   15 I    between atoms: O3_17  and  C3_83 
REMARK   16 I    between atoms: C4_20  and  O4_44 
REMARK   17 I    between atoms: N_21  and  C2_66 
REMARK   18 I    between atoms: N_21  and  S1_53 
REMARK   19 I    between atoms: O3_22  and  C3_65 
REMARK   20 I    between atoms: C4_23  and  O4_74 
REMARK   21 I    between atoms: C1_25  and  O1_72 
REMARK   22 I    between atoms: C2_28  and  O2_69 
REMARK   23 I    between atoms: C4_33  and  O4_61 
REMARK   24 I    between atoms: O2S_34  and  S1_45 
REMARK   25 I    between atoms: C6_37  and  C5_47 
REMARK   26 I    between atoms: O2_38  and  C2_77 
REMARK   27 I    between atoms: O2_38  and  S_50 
REMARK   28 I    between atoms: O3S_40  and  S1_53 
REMARK   29 I    between atoms: O1S_42  and  S1_45 
REMARK   30 I    between atoms: O1S_43  and  S1_53 
REMARK   31 I    between atoms: O4_44  and  C1_46 
REMARK   32 I    between atoms: S1_45  and  O3S_60 
REMARK   33 I    between atoms: C6_48  and  C5_84 
REMARK   34 I    between atoms: C6_51  and  C5_87 
REMARK   35 I    between atoms: S1_53  and  O2S_55 
REMARK   36 I    between atoms: C1_56  and  O4_74 
REMARK   37 I    between atoms: O6_57  and  S2_82 
REMARK   38 I    between atoms: O4_61  and  C1_70 
REMARK   39 I    between atoms: C3_63  and  O3_79 
REMARK   40 I    between atoms: O2_69  and  S_76 
ROOT
ATOM      1  C3  IDS d 504     -15.609  46.701 173.475  0.00  0.00     0.185 C 
ATOM      2  C4  IDS d 504     -14.705  47.173 172.347  0.00  0.00     0.195 C 
ATOM      3  C1  IDS d 504     -17.195  48.623 172.844  0.00  0.00     0.294 C 
ATOM      4  O5  IDS d 504     -16.232  48.965 171.842  0.00  0.00    -0.340 OA
ATOM      5  C2  IDS d 504     -16.561  47.851 173.983  0.00  0.00     0.231 C 
ATOM      6  C5  IDS d 504     -15.559  47.859 171.283  0.00  0.00     0.257 C 
ENDROOT
BRANCH   2   7
ATOM      7  O4  IDS d 504     -13.745  48.083 172.864  0.00  0.00    -0.348 OA
BRANCH   7   8
ATOM      8  C1  SGN d 505     -12.678  47.463 173.529  0.00  0.00     0.282 C 
ATOM      9  O5  SGN d 505     -11.800  46.882 172.607  0.00  0.00    -0.349 OA
ATOM     10  C5  SGN d 505     -11.169  47.805 171.773  0.00  0.00     0.181 C 
ATOM     11  C4  SGN d 505     -10.280  48.703 172.570  0.00  0.00     0.186 C 
ATOM     12  C3  SGN d 505     -11.204  49.502 173.534  0.00  0.00     0.173 C 
ATOM     13  C2  SGN d 505     -11.917  48.445 174.399  0.00  0.00     0.157 C 
BRANCH  10  14
ATOM     14  C6  SGN d 505     -10.423  47.007 170.753  0.00  0.00     0.227 C 
BRANCH  14  15
ATOM     15  O6  SGN d 505     -11.098  45.798 170.674  0.00  0.00    -0.254 OA
BRANCH  15  16
ATOM     16  S2  SGN d 505     -10.489  44.411 170.524  0.00  0.00     0.251 S 
ATOM     17  O5S SGN d 505      -9.333  44.612 169.687  0.00  0.00    -0.572 OA
ATOM     18  O4S SGN d 505     -11.534  43.614 169.923  0.00  0.00    -0.572 OA
ATOM     19  O6S SGN d 505     -10.136  43.957 171.863  0.00  0.00    -0.572 OA
ENDBRANCH  15  16
ENDBRANCH  14  15
ENDBRANCH  10  14
BRANCH  11  20
ATOM     20  O4  SGN d 505      -9.569  49.477 171.626  0.00  0.00    -0.348 OA
BRANCH  20  21
ATOM     21  C1  IDS d 506      -8.590  50.396 171.970  0.00  0.00     0.294 C 
ATOM     22  C2  IDS d 506      -7.711  50.670 170.741  0.00  0.00     0.231 C 
ATOM     23  C3  IDS d 506      -6.390  51.413 171.082  0.00  0.00     0.185 C 
ATOM     24  C4  IDS d 506      -5.753  50.967 172.416  0.00  0.00     0.189 C 
ATOM     25  C5  IDS d 506      -6.833  50.703 173.471  0.00  0.00     0.256 C 
ATOM     26  O5  IDS d 506      -7.785  49.824 172.970  0.00  0.00    -0.340 OA
BRANCH  22  27
ATOM     27  O2  IDS d 506      -7.348  49.452 170.122  0.00  0.00    -0.244 OA
BRANCH  27  28
ATOM     28  S   IDS d 506      -7.312  49.109 168.570  0.00  0.00     0.252 S 
ATOM     29  O1S IDS d 506      -8.684  49.062 168.168  0.00  0.00    -0.572 OA
ATOM     30  O2S IDS d 506      -6.612  50.165 167.896  0.00  0.00    -0.572 OA
ATOM     31  O3S IDS d 506      -6.645  47.828 168.473  0.00  0.00    -0.572 OA
ENDBRANCH  27  28
ENDBRANCH  22  27
BRANCH  23  32
ATOM     32  O3  IDS d 506      -6.663  52.810 171.155  0.00  0.00    -0.390 OA
ATOM     33  H   IDS d 506      -7.527  52.993 170.753  0.00  0.00     0.210 HD
ENDBRANCH  23  32
BRANCH  24  34
ATOM     34  O4  IDS d 506      -5.037  49.782 172.161  0.00  0.00    -0.390 OA
ATOM     35  H   IDS d 506      -5.173  49.158 172.892  0.00  0.00     0.210 HD
ENDBRANCH  24  34
BRANCH  25  36
ATOM     36  C6  IDS d 506      -6.353  50.210 174.823  0.00  0.00     0.206 C 
ATOM     37  O62 IDS d 506      -7.126  49.802 175.673  0.00  0.00    -0.646 OA
ATOM     38  O61 IDS d 506      -5.158  50.200 175.082  0.00  0.00    -0.646 OA
ENDBRANCH  25  36
ENDBRANCH  20  21
ENDBRANCH  11  20
BRANCH  12  39
ATOM     39  O3  SGN d 505     -10.432  50.337 174.388  0.00  0.00    -0.391 OA
ATOM     40  H   SGN d 505     -10.798  51.235 174.379  0.00  0.00     0.210 HD
ENDBRANCH  12  39
BRANCH  13  41
ATOM     41  N   SGN d 505     -12.826  48.984 175.438  0.00  0.00    -0.210 NA
ATOM     42  H   SGN d 505     -13.687  48.438 175.404  0.00  0.00     0.140 HD
BRANCH  41  43
ATOM     43  S1  SGN d 505     -12.284  48.968 177.023  0.00  0.00     0.156 S 
BRANCH  43  44
ATOM     44  O3S SGN d 505     -10.866  49.023 176.977  0.00  0.00    -0.296 OA
ATOM     45  H   SGN d 505     -10.520  48.173 176.662  0.00  0.00     0.231 HD
ENDBRANCH  43  44
BRANCH  43  46
ATOM     46  O1S SGN d 505     -12.872  50.107 177.698  0.00  0.00    -0.296 OA
ATOM     47  H   SGN d 505     -12.466  50.209 178.572  0.00  0.00     0.231 HD
ENDBRANCH  43  46
BRANCH  43  48
ATOM     48  O2S SGN d 505     -12.745  47.710 177.562  0.00  0.00    -0.296 OA
ATOM     49  H   SGN d 505     -13.570  47.850 178.051  0.00  0.00     0.231 HD
ENDBRANCH  43  48
ENDBRANCH  41  43
ENDBRANCH  13  41
ENDBRANCH   7   8
ENDBRANCH   2   7
BRANCH   1  50
ATOM     50  O3  IDS d 504     -16.390  45.627 172.964  0.00  0.00    -0.390 OA
ATOM     51  H   IDS d 504     -16.133  44.802 173.406  0.00  0.00     0.210 HD
ENDBRANCH   1  50
BRANCH   6  52
ATOM     52  C6  IDS d 504     -14.804  48.277 170.010  0.00  0.00     0.206 C 
ATOM     53  O62 IDS d 504     -15.150  47.865 168.900  0.00  0.00    -0.646 OA
ATOM     54  O61 IDS d 504     -13.829  49.015 170.070  0.00  0.00    -0.646 OA
ENDBRANCH   6  52
BRANCH   5  55
ATOM     55  O2  IDS d 504     -15.839  48.771 174.801  0.00  0.00    -0.244 OA
BRANCH  55  56
ATOM     56  S   IDS d 504     -16.186  49.190 176.241  0.00  0.00     0.252 S 
ATOM     57  O2S IDS d 504     -17.610  49.340 176.317  0.00  0.00    -0.572 OA
ATOM     58  O3S IDS d 504     -15.655  48.142 177.030  0.00  0.00    -0.572 OA
ATOM     59  O1S IDS d 504     -15.518  50.418 176.472  0.00  0.00    -0.572 OA
ENDBRANCH  55  56
ENDBRANCH   5  55
BRANCH   3  60
ATOM     60  O4  SGN d 503     -18.253  47.865 172.334  0.00  0.00    -0.348 OA
BRANCH  60  61
ATOM     61  C4  SGN d 503     -19.222  48.614 171.676  0.00  0.00     0.186 C 
ATOM     62  C5  SGN d 503     -20.219  49.154 172.717  0.00  0.00     0.181 C 
ATOM     63  O5  SGN d 503     -21.272  49.825 172.100  0.00  0.00    -0.349 OA
ATOM     64  C1  SGN d 503     -22.032  49.006 171.247  0.00  0.00     0.282 C 
ATOM     65  C2  SGN d 503     -21.136  48.462 170.125  0.00  0.00     0.157 C 
ATOM     66  C3  SGN d 503     -19.941  47.708 170.679  0.00  0.00     0.173 C 
BRANCH  62  67
ATOM     67  C6  SGN d 503     -19.636  50.159 173.673  0.00  0.00     0.227 C 
BRANCH  67  68
ATOM     68  O6  SGN d 503     -20.652  50.516 174.585  0.00  0.00    -0.254 OA
BRANCH  68  69
ATOM     69  S2  SGN d 503     -20.602  51.715 175.569  0.00  0.00     0.251 S 
ATOM     70  O6S SGN d 503     -19.625  52.567 175.010  0.00  0.00    -0.572 OA
ATOM     71  O4S SGN d 503     -21.873  52.356 175.558  0.00  0.00    -0.572 OA
ATOM     72  O5S SGN d 503     -20.273  51.176 176.884  0.00  0.00    -0.572 OA
ENDBRANCH  68  69
ENDBRANCH  67  68
ENDBRANCH  62  67
BRANCH  64  73
ATOM     73  O4  IDS d 502     -22.644  47.961 171.951  0.00  0.00    -0.348 OA
BRANCH  73  74
ATOM     74  C4  IDS d 502     -23.701  48.354 172.787  0.00  0.00     0.195 C 
ATOM     75  C3  IDS d 502     -25.011  48.402 171.978  0.00  0.00     0.185 C 
ATOM     76  C2  IDS d 502     -25.470  46.993 171.592  0.00  0.00     0.231 C 
ATOM     77  C1  IDS d 502     -25.445  46.041 172.784  0.00  0.00     0.291 C 
ATOM     78  O5  IDS d 502     -24.206  46.082 173.446  0.00  0.00    -0.340 OA
ATOM     79  C5  IDS d 502     -23.838  47.357 173.936  0.00  0.00     0.257 C 
BRANCH  75  80
ATOM     80  O3  IDS d 502     -26.022  48.990 172.774  0.00  0.00    -0.390 OA
ATOM     81  H   IDS d 502     -25.744  49.878 173.045  0.00  0.00     0.210 HD
ENDBRANCH  75  80
BRANCH  76  82
ATOM     82  O2  IDS d 502     -24.569  46.510 170.631  0.00  0.00    -0.244 OA
BRANCH  82  83
ATOM     83  S   IDS d 502     -24.898  45.925 169.219  0.00  0.00     0.252 S 
ATOM     84  O3S IDS d 502     -25.085  47.078 168.377  0.00  0.00    -0.572 OA
ATOM     85  O2S IDS d 502     -26.091  45.129 169.390  0.00  0.00    -0.572 OA
ATOM     86  O1S IDS d 502     -23.769  45.135 168.811  0.00  0.00    -0.572 OA
ENDBRANCH  82  83
ENDBRANCH  76  82
BRANCH  77  87
ATOM     87  O1  IDS d 502     -26.518  46.374 173.624  0.00  0.00    -0.368 OA
ATOM     88  H   IDS d 502     -26.545  45.758 174.373  0.00  0.00     0.212 HD
ENDBRANCH  77  87
BRANCH  79  89
ATOM     89  C6  IDS d 502     -22.608  47.257 174.826  0.00  0.00     0.206 C 
ATOM     90  O61 IDS d 502     -21.800  46.372 174.681  0.00  0.00    -0.646 OA
ATOM     91  O62 IDS d 502     -22.403  48.070 175.705  0.00  0.00    -0.646 OA
ENDBRANCH  79  89
ENDBRANCH  73  74
ENDBRANCH  64  73
BRANCH  65  92
ATOM     92  N   SGN d 503     -21.907  47.635 169.214  0.00  0.00    -0.210 NA
ATOM     93  H   SGN d 503     -22.864  47.604 169.565  0.00  0.00     0.140 HD
BRANCH  92  94
ATOM     94  S1  SGN d 503     -21.976  48.095 167.654  0.00  0.00     0.156 S 
BRANCH  94  95
ATOM     95  O2S SGN d 503     -22.525  46.986 166.875  0.00  0.00    -0.296 OA
ATOM     96  H   SGN d 503     -23.492  47.061 166.844  0.00  0.00     0.231 HD
ENDBRANCH  94  95
BRANCH  94  97
ATOM     97  O1S SGN d 503     -20.615  48.412 167.265  0.00  0.00    -0.296 OA
ATOM     98  H   SGN d 503     -20.534  48.359 166.300  0.00  0.00     0.231 HD
ENDBRANCH  94  97
BRANCH  94  99
ATOM     99  O3S SGN d 503     -22.828  49.262 167.690  0.00  0.00    -0.296 OA
ATOM    100  H   SGN d 503     -22.876  49.654 166.805  0.00  0.00     0.231 HD
ENDBRANCH  94  99
ENDBRANCH  92  94
ENDBRANCH  65  92
BRANCH  66 101
ATOM    101  O3  SGN d 503     -19.039  47.400 169.634  0.00  0.00    -0.391 OA
ATOM    102  H   SGN d 503     -18.283  48.006 169.670  0.00  0.00     0.210 HD
ENDBRANCH  66 101
ENDBRANCH  60  61
ENDBRANCH   3  60
TORSDOF 40
ENDMDL
MODEL 77
REMARK VINA RESULT:      -2.1      2.766      5.027
REMARK WARNING: 32 MAX_TORS EXCEEDED!!!
REMARK  40 active torsions:
REMARK  status: ('A' for Active; 'I' for Inactive)
REMARK    1 I    between atoms: C6_1  and  C5_8 
REMARK    2 I    between atoms: C6_1  and  O6_57 
REMARK    3 I    between atoms: O4_2  and  C4_49 
REMARK    4 I    between atoms: O6_3  and  C6_7 
REMARK    5 I    between atoms: O6_3  and  S2_58 
REMARK    6 I    between atoms: S_4  and  O2_6 
REMARK    7 I    between atoms: O3_5  and  C3_81 
REMARK    8 I    between atoms: O2_6  and  C2_11 
REMARK    9 I    between atoms: C6_7  and  C5_54 
REMARK   10 I    between atoms: O4_9  and  C4_32 
REMARK   11 I    between atoms: O4_9  and  C1_39 
REMARK   12 I    between atoms: O3_12  and  C3_18 
REMARK   13 I    between atoms: N_13  and  C2_52 
REMARK   14 I    between atoms: N_13  and  S1_45 
REMARK   15 I    between atoms: O3_17  and  C3_83 
REMARK   16 I    between atoms: C4_20  and  O4_44 
REMARK   17 I    between atoms: N_21  and  C2_66 
REMARK   18 I    between atoms: N_21  and  S1_53 
REMARK   19 I    between atoms: O3_22  and  C3_65 
REMARK   20 I    between atoms: C4_23  and  O4_74 
REMARK   21 I    between atoms: C1_25  and  O1_72 
REMARK   22 I    between atoms: C2_28  and  O2_69 
REMARK   23 I    between atoms: C4_33  and  O4_61 
REMARK   24 I    between atoms: O2S_34  and  S1_45 
REMARK   25 I    between atoms: C6_37  and  C5_47 
REMARK   26 I    between atoms: O2_38  and  C2_77 
REMARK   27 I    between atoms: O2_38  and  S_50 
REMARK   28 I    between atoms: O3S_40  and  S1_53 
REMARK   29 I    between atoms: O1S_42  and  S1_45 
REMARK   30 I    between atoms: O1S_43  and  S1_53 
REMARK   31 I    between atoms: O4_44  and  C1_46 
REMARK   32 I    between atoms: S1_45  and  O3S_60 
REMARK   33 I    between atoms: C6_48  and  C5_84 
REMARK   34 I    between atoms: C6_51  and  C5_87 
REMARK   35 I    between atoms: S1_53  and  O2S_55 
REMARK   36 I    between atoms: C1_56  and  O4_74 
REMARK   37 I    between atoms: O6_57  and  S2_82 
REMARK   38 I    between atoms: O4_61  and  C1_70 
REMARK   39 I    between atoms: C3_63  and  O3_79 
REMARK   40 I    between atoms: O2_69  and  S_76 
ROOT
ATOM      1  C3  IDS d 504     -15.231  48.355 173.619  0.00  0.00     0.185 C 
ATOM      2  C4  IDS d 504     -13.818  48.863 173.859  0.00  0.00     0.195 C 
ATOM      3  C1  IDS d 504     -15.938  49.720 175.680  0.00  0.00     0.294 C 
ATOM      4  O5  IDS d 504     -14.560  50.088 175.794  0.00  0.00    -0.340 OA
ATOM      5  C2  IDS d 504     -16.104  48.413 174.931  0.00  0.00     0.231 C 
ATOM      6  C5  IDS d 504     -13.890  50.218 174.560  0.00  0.00     0.257 C 
ENDROOT
BRANCH   2   7
ATOM      7  O4  IDS d 504     -13.115  47.931 174.668  0.00  0.00    -0.348 OA
BRANCH   7   8
ATOM      8  C1  SGN d 505     -12.950  46.673 174.071  0.00  0.00     0.282 C 
ATOM      9  O5  SGN d 505     -12.193  46.785 172.900  0.00  0.00    -0.349 OA
ATOM     10  C5  SGN d 505     -10.884  47.214 173.116  0.00  0.00     0.181 C 
ATOM     11  C4  SGN d 505     -10.129  46.201 173.914  0.00  0.00     0.186 C 
ATOM     12  C3  SGN d 505     -10.827  46.119 175.303  0.00  0.00     0.173 C 
ATOM     13  C2  SGN d 505     -12.280  45.693 175.014  0.00  0.00     0.157 C 
BRANCH  10  14
ATOM     14  C6  SGN d 505     -10.290  47.447 171.764  0.00  0.00     0.227 C 
BRANCH  14  15
ATOM     15  O6  SGN d 505     -11.303  48.029 171.018  0.00  0.00    -0.254 OA
BRANCH  15  16
ATOM     16  S2  SGN d 505     -11.472  47.993 169.506  0.00  0.00     0.251 S 
ATOM     17  O5S SGN d 505     -11.664  49.371 169.130  0.00  0.00    -0.572 OA
ATOM     18  O4S SGN d 505     -12.622  47.145 169.285  0.00  0.00    -0.572 OA
ATOM     19  O6S SGN d 505     -10.245  47.431 168.957  0.00  0.00    -0.572 OA
ENDBRANCH  15  16
ENDBRANCH  14  15
ENDBRANCH  10  14
BRANCH  11  20
ATOM     20  O4  SGN d 505      -8.788  46.646 173.932  0.00  0.00    -0.348 OA
BRANCH  20  21
ATOM     21  C1  IDS d 506      -7.698  45.796 173.830  0.00  0.00     0.294 C 
ATOM     22  C2  IDS d 506      -6.414  46.604 174.070  0.00  0.00     0.231 C 
ATOM     23  C3  IDS d 506      -5.123  45.847 173.653  0.00  0.00     0.185 C 
ATOM     24  C4  IDS d 506      -5.286  44.999 172.374  0.00  0.00     0.189 C 
ATOM     25  C5  IDS d 506      -6.666  44.334 172.336  0.00  0.00     0.256 C 
ATOM     26  O5  IDS d 506      -7.661  45.286 172.521  0.00  0.00    -0.340 OA
BRANCH  22  27
ATOM     27  O2  IDS d 506      -6.446  47.802 173.320  0.00  0.00    -0.244 OA
BRANCH  27  28
ATOM     28  S   IDS d 506      -6.499  49.298 173.855  0.00  0.00     0.252 S 
ATOM     29  O1S IDS d 506      -5.232  49.863 173.504  0.00  0.00    -0.572 OA
ATOM     30  O2S IDS d 506      -7.570  49.975 173.182  0.00  0.00    -0.572 OA
ATOM     31  O3S IDS d 506      -6.698  49.191 175.284  0.00  0.00    -0.572 OA
ENDBRANCH  27  28
ENDBRANCH  22  27
BRANCH  23  32
ATOM     32  O3  IDS d 506      -4.739  44.985 174.722  0.00  0.00    -0.390 OA
ATOM     33  H   IDS d 506      -5.443  44.964 175.389  0.00  0.00     0.210 HD
ENDBRANCH  23  32
BRANCH  24  34
ATOM     34  O4  IDS d 506      -5.148  45.869 171.275  0.00  0.00    -0.390 OA
ATOM     35  H   IDS d 506      -4.361  45.622 170.764  0.00  0.00     0.210 HD
ENDBRANCH  24  34
BRANCH  25  36
ATOM     36  C6  IDS d 506      -6.987  43.503 171.107  0.00  0.00     0.206 C 
ATOM     37  O62 IDS d 506      -8.045  42.912 170.984  0.00  0.00    -0.646 OA
ATOM     38  O61 IDS d 506      -6.176  43.425 170.194  0.00  0.00    -0.646 OA
ENDBRANCH  25  36
ENDBRANCH  20  21
ENDBRANCH  11  20
BRANCH  12  39
ATOM     39  O3  SGN d 505     -10.216  45.121 176.110  0.00  0.00    -0.391 OA
ATOM     40  H   SGN d 505      -9.265  45.089 175.921  0.00  0.00     0.210 HD
ENDBRANCH  12  39
BRANCH  13  41
ATOM     41  N   SGN d 505     -13.133  45.501 176.209  0.00  0.00    -0.210 NA
ATOM     42  H   SGN d 505     -14.097  45.687 175.930  0.00  0.00     0.140 HD
BRANCH  41  43
ATOM     43  S1  SGN d 505     -13.106  43.996 176.946  0.00  0.00     0.156 S 
BRANCH  43  44
ATOM     44  O3S SGN d 505     -12.248  44.103 178.072  0.00  0.00    -0.296 OA
ATOM     45  H   SGN d 505     -12.249  43.264 178.560  0.00  0.00     0.231 HD
ENDBRANCH  43  44
BRANCH  43  46
ATOM     46  O1S SGN d 505     -14.468  43.659 177.303  0.00  0.00    -0.296 OA
ATOM     47  H   SGN d 505     -14.474  42.832 177.808  0.00  0.00     0.231 HD
ENDBRANCH  43  46
BRANCH  43  48
ATOM     48  O2S SGN d 505     -12.560  43.104 175.951  0.00  0.00    -0.296 OA
ATOM     49  H   SGN d 505     -12.495  43.568 175.101  0.00  0.00     0.231 HD
ENDBRANCH  43  48
ENDBRANCH  41  43
ENDBRANCH  13  41
ENDBRANCH   7   8
ENDBRANCH   2   7
BRANCH   1  50
ATOM     50  O3  IDS d 504     -15.811  49.189 172.624  0.00  0.00    -0.390 OA
ATOM     51  H   IDS d 504     -15.124  49.752 172.233  0.00  0.00     0.210 HD
ENDBRANCH   1  50
BRANCH   6  52
ATOM     52  C6  IDS d 504     -12.539  50.926 174.754  0.00  0.00     0.206 C 
ATOM     53  O62 IDS d 504     -11.675  50.457 175.498  0.00  0.00    -0.646 OA
ATOM     54  O61 IDS d 504     -12.295  51.983 174.186  0.00  0.00    -0.646 OA
ENDBRANCH   6  52
BRANCH   5  55
ATOM     55  O2  IDS d 504     -15.753  47.345 175.810  0.00  0.00    -0.244 OA
BRANCH  55  56
ATOM     56  S   IDS d 504     -16.535  46.883 177.053  0.00  0.00     0.252 S 
ATOM     57  O2S IDS d 504     -16.602  45.451 177.016  0.00  0.00    -0.572 OA
ATOM     58  O3S IDS d 504     -15.791  47.416 178.133  0.00  0.00    -0.572 OA
ATOM     59  O1S IDS d 504     -17.822  47.468 176.957  0.00  0.00    -0.572 OA
ENDBRANCH  55  56
ENDBRANCH   5  55
BRANCH   3  60
ATOM     60  O4  SGN d 503     -16.702  50.697 175.034  0.00  0.00    -0.348 OA
BRANCH  60  61
ATOM     61  C4  SGN d 503     -17.010  51.794 175.831  0.00  0.00     0.186 C 
ATOM     62  C5  SGN d 503     -18.539  51.879 175.984  0.00  0.00     0.181 C 
ATOM     63  O5  SGN d 503     -18.908  53.024 176.687  0.00  0.00    -0.349 OA
ATOM     64  C1  SGN d 503     -18.532  54.218 176.047  0.00  0.00     0.282 C 
ATOM     65  C2  SGN d 503     -17.004  54.261 175.901  0.00  0.00     0.157 C 
ATOM     66  C3  SGN d 503     -16.479  53.052 175.148  0.00  0.00     0.173 C 
BRANCH  62  67
ATOM     67  C6  SGN d 503     -19.151  50.744 176.759  0.00  0.00     0.227 C 
BRANCH  67  68
ATOM     68  O6  SGN d 503     -20.061  50.087 175.904  0.00  0.00    -0.254 OA
BRANCH  68  69
ATOM     69  S2  SGN d 503     -21.196  49.131 176.357  0.00  0.00     0.251 S 
ATOM     70  O6S SGN d 503     -22.373  49.780 175.926  0.00  0.00    -0.572 OA
ATOM     71  O4S SGN d 503     -21.040  47.894 175.669  0.00  0.00    -0.572 OA
ATOM     72  O5S SGN d 503     -21.070  48.972 177.802  0.00  0.00    -0.572 OA
ENDBRANCH  68  69
ENDBRANCH  67  68
ENDBRANCH  62  67
BRANCH  64  73
ATOM     73  O4  IDS d 502     -19.158  54.351 174.800  0.00  0.00    -0.348 OA
BRANCH  73  74
ATOM     74  C4  IDS d 502     -20.280  55.196 174.793  0.00  0.00     0.195 C 
ATOM     75  C3  IDS d 502     -19.890  56.568 174.212  0.00  0.00     0.185 C 
ATOM     76  C2  IDS d 502     -19.606  56.467 172.710  0.00  0.00     0.231 C 
ATOM     77  C1  IDS d 502     -20.706  55.707 171.974  0.00  0.00     0.291 C 
ATOM     78  O5  IDS d 502     -20.979  54.475 172.593  0.00  0.00    -0.340 OA
ATOM     79  C5  IDS d 502     -21.383  54.568 173.945  0.00  0.00     0.257 C 
BRANCH  75  80
ATOM     80  O3  IDS d 502     -20.966  57.468 174.395  0.00  0.00    -0.390 OA
ATOM     81  H   IDS d 502     -21.211  57.491 175.333  0.00  0.00     0.210 HD
ENDBRANCH  75  80
BRANCH  76  82
ATOM     82  O2  IDS d 502     -18.409  55.752 172.559  0.00  0.00    -0.244 OA
BRANCH  82  83
ATOM     83  S   IDS d 502     -17.023  56.296 172.079  0.00  0.00     0.252 S 
ATOM     84  O3S IDS d 502     -16.096  55.227 172.346  0.00  0.00    -0.572 OA
ATOM     85  O2S IDS d 502     -16.777  57.489 172.855  0.00  0.00    -0.572 OA
ATOM     86  O1S IDS d 502     -17.138  56.573 170.674  0.00  0.00    -0.572 OA
ENDBRANCH  82  83
ENDBRANCH  76  82
BRANCH  77  87
ATOM     87  O1  IDS d 502     -21.834  56.539 171.906  0.00  0.00    -0.368 OA
ATOM     88  H   IDS d 502     -22.304  56.515 172.755  0.00  0.00     0.212 HD
ENDBRANCH  77  87
BRANCH  79  89
ATOM     89  C6  IDS d 502     -21.872  53.219 174.454  0.00  0.00     0.206 C 
ATOM     90  O61 IDS d 502     -22.355  53.103 175.554  0.00  0.00    -0.646 OA
ATOM     91  O62 IDS d 502     -21.792  52.223 173.763  0.00  0.00    -0.646 OA
ENDBRANCH  79  89
ENDBRANCH  73  74
ENDBRANCH  64  73
BRANCH  65  92
ATOM     92  N   SGN d 503     -16.589  55.500 175.267  0.00  0.00    -0.210 NA
ATOM     93  H   SGN d 503     -17.317  56.192 175.443  0.00  0.00     0.140 HD
BRANCH  92  94
ATOM     94  S1  SGN d 503     -15.174  56.152 175.740  0.00  0.00     0.156 S 
BRANCH  94  95
ATOM     95  O2S SGN d 503     -15.306  57.607 175.699  0.00  0.00    -0.296 OA
ATOM     96  H   SGN d 503     -14.441  58.004 175.508  0.00  0.00     0.231 HD
ENDBRANCH  94  95
BRANCH  94  97
ATOM     97  O1S SGN d 503     -14.174  55.668 174.807  0.00  0.00    -0.296 OA
ATOM     98  H   SGN d 503     -14.321  56.074 173.938  0.00  0.00     0.231 HD
ENDBRANCH  94  97
BRANCH  94  99
ATOM     99  O3S SGN d 503     -14.993  55.618 177.071  0.00  0.00    -0.296 OA
ATOM    100  H   SGN d 503     -14.491  56.251 177.607  0.00  0.00     0.231 HD
ENDBRANCH  94  99
ENDBRANCH  92  94
ENDBRANCH  65  92
BRANCH  66 101
ATOM    101  O3  SGN d 503     -15.066  53.023 175.209  0.00  0.00    -0.391 OA
ATOM    102  H   SGN d 503     -14.701  53.100 174.314  0.00  0.00     0.210 HD
ENDBRANCH  66 101
ENDBRANCH  60  61
ENDBRANCH   3  60
TORSDOF 40
ENDMDL
MODEL 78
REMARK VINA RESULT:      -2.1      2.710      6.081
REMARK WARNING: 32 MAX_TORS EXCEEDED!!!
REMARK  40 active torsions:
REMARK  status: ('A' for Active; 'I' for Inactive)
REMARK    1 I    between atoms: C6_1  and  C5_8 
REMARK    2 I    between atoms: C6_1  and  O6_57 
REMARK    3 I    between atoms: O4_2  and  C4_49 
REMARK    4 I    between atoms: O6_3  and  C6_7 
REMARK    5 I    between atoms: O6_3  and  S2_58 
REMARK    6 I    between atoms: S_4  and  O2_6 
REMARK    7 I    between atoms: O3_5  and  C3_81 
REMARK    8 I    between atoms: O2_6  and  C2_11 
REMARK    9 I    between atoms: C6_7  and  C5_54 
REMARK   10 I    between atoms: O4_9  and  C4_32 
REMARK   11 I    between atoms: O4_9  and  C1_39 
REMARK   12 I    between atoms: O3_12  and  C3_18 
REMARK   13 I    between atoms: N_13  and  C2_52 
REMARK   14 I    between atoms: N_13  and  S1_45 
REMARK   15 I    between atoms: O3_17  and  C3_83 
REMARK   16 I    between atoms: C4_20  and  O4_44 
REMARK   17 I    between atoms: N_21  and  C2_66 
REMARK   18 I    between atoms: N_21  and  S1_53 
REMARK   19 I    between atoms: O3_22  and  C3_65 
REMARK   20 I    between atoms: C4_23  and  O4_74 
REMARK   21 I    between atoms: C1_25  and  O1_72 
REMARK   22 I    between atoms: C2_28  and  O2_69 
REMARK   23 I    between atoms: C4_33  and  O4_61 
REMARK   24 I    between atoms: O2S_34  and  S1_45 
REMARK   25 I    between atoms: C6_37  and  C5_47 
REMARK   26 I    between atoms: O2_38  and  C2_77 
REMARK   27 I    between atoms: O2_38  and  S_50 
REMARK   28 I    between atoms: O3S_40  and  S1_53 
REMARK   29 I    between atoms: O1S_42  and  S1_45 
REMARK   30 I    between atoms: O1S_43  and  S1_53 
REMARK   31 I    between atoms: O4_44  and  C1_46 
REMARK   32 I    between atoms: S1_45  and  O3S_60 
REMARK   33 I    between atoms: C6_48  and  C5_84 
REMARK   34 I    between atoms: C6_51  and  C5_87 
REMARK   35 I    between atoms: S1_53  and  O2S_55 
REMARK   36 I    between atoms: C1_56  and  O4_74 
REMARK   37 I    between atoms: O6_57  and  S2_82 
REMARK   38 I    between atoms: O4_61  and  C1_70 
REMARK   39 I    between atoms: C3_63  and  O3_79 
REMARK   40 I    between atoms: O2_69  and  S_76 
ROOT
ATOM      1  C3  IDS d 504     -15.214  49.093 170.646  0.00  0.00     0.185 C 
ATOM      2  C4  IDS d 504     -14.153  48.704 171.664  0.00  0.00     0.195 C 
ATOM      3  C1  IDS d 504     -16.724  49.701 172.635  0.00  0.00     0.294 C 
ATOM      4  O5  IDS d 504     -15.643  49.271 173.468  0.00  0.00    -0.340 OA
ATOM      5  C2  IDS d 504     -16.663  49.054 171.267  0.00  0.00     0.231 C 
ATOM      6  C5  IDS d 504     -14.363  49.525 172.936  0.00  0.00     0.257 C 
ENDROOT
BRANCH   2   7
ATOM      7  O4  IDS d 504     -14.265  47.318 171.953  0.00  0.00    -0.348 OA
BRANCH   7   8
ATOM      8  C1  SGN d 505     -13.881  46.485 170.893  0.00  0.00     0.282 C 
ATOM      9  O5  SGN d 505     -12.579  46.791 170.480  0.00  0.00    -0.349 OA
ATOM     10  C5  SGN d 505     -11.609  46.544 171.451  0.00  0.00     0.181 C 
ATOM     11  C4  SGN d 505     -11.537  45.083 171.755  0.00  0.00     0.186 C 
ATOM     12  C3  SGN d 505     -12.914  44.686 172.362  0.00  0.00     0.173 C 
ATOM     13  C2  SGN d 505     -13.958  45.021 171.279  0.00  0.00     0.157 C 
BRANCH  10  14
ATOM     14  C6  SGN d 505     -10.327  47.088 170.910  0.00  0.00     0.227 C 
BRANCH  14  15
ATOM     15  O6  SGN d 505     -10.556  47.278 169.556  0.00  0.00    -0.254 OA
BRANCH  15  16
ATOM     16  S2  SGN d 505     -10.382  48.565 168.763  0.00  0.00     0.251 S 
ATOM     17  O5S SGN d 505     -10.173  48.129 167.405  0.00  0.00    -0.572 OA
ATOM     18  O4S SGN d 505      -9.240  49.216 169.365  0.00  0.00    -0.572 OA
ATOM     19  O6S SGN d 505     -11.612  49.329 168.920  0.00  0.00    -0.572 OA
ENDBRANCH  15  16
ENDBRANCH  14  15
ENDBRANCH  10  14
BRANCH  11  20
ATOM     20  O4  SGN d 505     -10.425  44.923 172.612  0.00  0.00    -0.348 OA
BRANCH  20  21
ATOM     21  C1  IDS d 506      -9.489  43.910 172.472  0.00  0.00     0.294 C 
ATOM     22  C2  IDS d 506      -8.230  44.283 173.268  0.00  0.00     0.231 C 
ATOM     23  C3  IDS d 506      -6.999  43.401 172.920  0.00  0.00     0.185 C 
ATOM     24  C4  IDS d 506      -6.899  43.036 171.424  0.00  0.00     0.189 C 
ATOM     25  C5  IDS d 506      -8.288  42.758 170.840  0.00  0.00     0.256 C 
ATOM     26  O5  IDS d 506      -9.143  43.819 171.113  0.00  0.00    -0.340 OA
BRANCH  22  27
ATOM     27  O2  IDS d 506      -7.864  45.622 173.000  0.00  0.00    -0.244 OA
BRANCH  27  28
ATOM     28  S   IDS d 506      -7.677  46.816 174.030  0.00  0.00     0.252 S 
ATOM     29  O1S IDS d 506      -6.526  46.464 174.803  0.00  0.00    -0.572 OA
ATOM     30  O2S IDS d 506      -7.447  48.020 173.282  0.00  0.00    -0.572 OA
ATOM     31  O3S IDS d 506      -8.897  46.851 174.808  0.00  0.00    -0.572 OA
ENDBRANCH  27  28
ENDBRANCH  22  27
BRANCH  23  32
ATOM     32  O3  IDS d 506      -7.077  42.196 173.677  0.00  0.00    -0.390 OA
ATOM     33  H   IDS d 506      -7.567  42.361 174.498  0.00  0.00     0.210 HD
ENDBRANCH  23  32
BRANCH  24  34
ATOM     34  O4  IDS d 506      -6.317  44.135 170.763  0.00  0.00    -0.390 OA
ATOM     35  H   IDS d 506      -6.833  44.346 169.969  0.00  0.00     0.210 HD
ENDBRANCH  24  34
BRANCH  25  36
ATOM     36  C6  IDS d 506      -8.349  42.431 169.359  0.00  0.00     0.206 C 
ATOM     37  O62 IDS d 506      -7.393  42.594 168.621  0.00  0.00    -0.646 OA
ATOM     38  O61 IDS d 506      -9.376  41.974 168.875  0.00  0.00    -0.646 OA
ENDBRANCH  25  36
ENDBRANCH  20  21
ENDBRANCH  11  20
BRANCH  12  39
ATOM     39  O3  SGN d 505     -12.962  43.288 172.618  0.00  0.00    -0.391 OA
ATOM     40  H   SGN d 505     -13.628  43.107 173.300  0.00  0.00     0.210 HD
ENDBRANCH  12  39
BRANCH  13  41
ATOM     41  N   SGN d 505     -15.358  44.678 171.620  0.00  0.00    -0.210 NA
ATOM     42  H   SGN d 505     -15.962  45.352 171.150  0.00  0.00     0.140 HD
BRANCH  41  43
ATOM     43  S1  SGN d 505     -15.901  43.146 171.209  0.00  0.00     0.156 S 
BRANCH  43  44
ATOM     44  O3S SGN d 505     -14.958  42.603 170.298  0.00  0.00    -0.296 OA
ATOM     45  H   SGN d 505     -14.087  42.998 170.461  0.00  0.00     0.231 HD
ENDBRANCH  43  44
BRANCH  43  46
ATOM     46  O1S SGN d 505     -16.015  42.379 172.431  0.00  0.00    -0.296 OA
ATOM     47  H   SGN d 505     -15.497  41.564 172.350  0.00  0.00     0.231 HD
ENDBRANCH  43  46
BRANCH  43  48
ATOM     48  O2S SGN d 505     -17.180  43.364 170.574  0.00  0.00    -0.296 OA
ATOM     49  H   SGN d 505     -17.125  44.137 169.990  0.00  0.00     0.231 HD
ENDBRANCH  43  48
ENDBRANCH  41  43
ENDBRANCH  13  41
ENDBRANCH   7   8
ENDBRANCH   2   7
BRANCH   1  50
ATOM     50  O3  IDS d 504     -14.915  50.415 170.215  0.00  0.00    -0.390 OA
ATOM     51  H   IDS d 504     -13.957  50.563 170.267  0.00  0.00     0.210 HD
ENDBRANCH   1  50
BRANCH   6  52
ATOM     52  C6  IDS d 504     -13.285  49.341 174.016  0.00  0.00     0.206 C 
ATOM     53  O62 IDS d 504     -13.588  49.230 175.206  0.00  0.00    -0.646 OA
ATOM     54  O61 IDS d 504     -12.096  49.318 173.723  0.00  0.00    -0.646 OA
ENDBRANCH   6  52
BRANCH   5  55
ATOM     55  O2  IDS d 504     -17.117  47.707 171.388  0.00  0.00    -0.244 OA
BRANCH  55  56
ATOM     56  S   IDS d 504     -17.914  46.907 170.340  0.00  0.00     0.252 S 
ATOM     57  O2S IDS d 504     -18.714  47.839 169.600  0.00  0.00    -0.572 OA
ATOM     58  O3S IDS d 504     -16.911  46.253 169.586  0.00  0.00    -0.572 OA
ATOM     59  O1S IDS d 504     -18.716  45.989 171.063  0.00  0.00    -0.572 OA
ENDBRANCH  55  56
ENDBRANCH   5  55
BRANCH   3  60
ATOM     60  O4  SGN d 503     -16.749  51.089 172.464  0.00  0.00    -0.348 OA
BRANCH  60  61
ATOM     61  C4  SGN d 503     -17.097  51.795 173.610  0.00  0.00     0.186 C 
ATOM     62  C5  SGN d 503     -18.575  52.211 173.503  0.00  0.00     0.181 C 
ATOM     63  O5  SGN d 503     -18.948  53.013 174.579  0.00  0.00    -0.349 OA
ATOM     64  C1  SGN d 503     -18.227  54.218 174.653  0.00  0.00     0.282 C 
ATOM     65  C2  SGN d 503     -16.732  53.912 174.826  0.00  0.00     0.157 C 
ATOM     66  C3  SGN d 503     -16.208  53.033 173.705  0.00  0.00     0.173 C 
BRANCH  62  67
ATOM     67  C6  SGN d 503     -19.547  51.063 173.531  0.00  0.00     0.227 C 
BRANCH  67  68
ATOM     68  O6  SGN d 503     -20.006  50.862 172.212  0.00  0.00    -0.254 OA
BRANCH  68  69
ATOM     69  S2  SGN d 503     -21.323  50.145 171.813  0.00  0.00     0.251 S 
ATOM     70  O6S SGN d 503     -20.964  48.780 171.777  0.00  0.00    -0.572 OA
ATOM     71  O4S SGN d 503     -22.283  50.371 172.839  0.00  0.00    -0.572 OA
ATOM     72  O5S SGN d 503     -21.747  50.708 170.535  0.00  0.00    -0.572 OA
ENDBRANCH  68  69
ENDBRANCH  67  68
ENDBRANCH  62  67
BRANCH  64  73
ATOM     73  O4  IDS d 502     -18.448  55.018 173.523  0.00  0.00    -0.348 OA
BRANCH  73  74
ATOM     74  C4  IDS d 502     -19.668  55.713 173.523  0.00  0.00     0.195 C 
ATOM     75  C3  IDS d 502     -19.479  57.089 174.191  0.00  0.00     0.185 C 
ATOM     76  C2  IDS d 502     -18.630  58.012 173.312  0.00  0.00     0.231 C 
ATOM     77  C1  IDS d 502     -19.114  58.023 171.865  0.00  0.00     0.291 C 
ATOM     78  O5  IDS d 502     -19.252  56.718 171.363  0.00  0.00    -0.340 OA
ATOM     79  C5  IDS d 502     -20.148  55.896 172.085  0.00  0.00     0.257 C 
BRANCH  75  80
ATOM     80  O3  IDS d 502     -20.746  57.692 174.366  0.00  0.00    -0.390 OA
ATOM     81  H   IDS d 502     -21.141  57.378 175.194  0.00  0.00     0.210 HD
ENDBRANCH  75  80
BRANCH  76  82
ATOM     82  O2  IDS d 502     -17.319  57.515 173.329  0.00  0.00    -0.244 OA
BRANCH  82  83
ATOM     83  S   IDS d 502     -16.002  58.297 173.646  0.00  0.00     0.252 S 
ATOM     84  O3S IDS d 502     -16.071  58.576 175.057  0.00  0.00    -0.572 OA
ATOM     85  O2S IDS d 502     -16.035  59.478 172.816  0.00  0.00    -0.572 OA
ATOM     86  O1S IDS d 502     -14.903  57.431 173.320  0.00  0.00    -0.572 OA
ENDBRANCH  82  83
ENDBRANCH  76  82
BRANCH  77  87
ATOM     87  O1  IDS d 502     -20.313  58.750 171.816  0.00  0.00    -0.368 OA
ATOM     88  H   IDS d 502     -21.032  58.167 171.526  0.00  0.00     0.212 HD
ENDBRANCH  77  87
BRANCH  79  89
ATOM     89  C6  IDS d 502     -20.403  54.593 171.341  0.00  0.00     0.206 C 
ATOM     90  O61 IDS d 502     -19.706  54.253 170.417  0.00  0.00    -0.646 OA
ATOM     91  O62 IDS d 502     -21.315  53.857 171.663  0.00  0.00    -0.646 OA
ENDBRANCH  79  89
ENDBRANCH  73  74
ENDBRANCH  64  73
BRANCH  65  92
ATOM     92  N   SGN d 503     -15.970  55.144 174.932  0.00  0.00    -0.210 NA
ATOM     93  H   SGN d 503     -16.554  55.897 174.567  0.00  0.00     0.140 HD
BRANCH  92  94
ATOM     94  S1  SGN d 503     -15.469  55.593 176.414  0.00  0.00     0.156 S 
BRANCH  94  95
ATOM     95  O2S SGN d 503     -16.545  56.350 177.051  0.00  0.00    -0.296 OA
ATOM     96  H   SGN d 503     -17.338  56.316 176.492  0.00  0.00     0.231 HD
ENDBRANCH  94  95
BRANCH  94  97
ATOM     97  O1S SGN d 503     -14.281  56.402 176.211  0.00  0.00    -0.296 OA
ATOM     98  H   SGN d 503     -14.357  57.221 176.724  0.00  0.00     0.231 HD
ENDBRANCH  94  97
BRANCH  94  99
ATOM     99  O3S SGN d 503     -15.177  54.334 177.061  0.00  0.00    -0.296 OA
ATOM    100  H   SGN d 503     -16.006  53.871 177.255  0.00  0.00     0.231 HD
ENDBRANCH  94  99
ENDBRANCH  92  94
ENDBRANCH  65  92
BRANCH  66 101
ATOM    101  O3  SGN d 503     -14.892  52.608 174.002  0.00  0.00    -0.391 OA
ATOM    102  H   SGN d 503     -14.277  52.980 173.351  0.00  0.00     0.210 HD
ENDBRANCH  66 101
ENDBRANCH  60  61
ENDBRANCH   3  60
TORSDOF 40
ENDMDL
MODEL 79
REMARK VINA RESULT:      -2.1      2.472     12.443
REMARK WARNING: 32 MAX_TORS EXCEEDED!!!
REMARK  40 active torsions:
REMARK  status: ('A' for Active; 'I' for Inactive)
REMARK    1 I    between atoms: C6_1  and  C5_8 
REMARK    2 I    between atoms: C6_1  and  O6_57 
REMARK    3 I    between atoms: O4_2  and  C4_49 
REMARK    4 I    between atoms: O6_3  and  C6_7 
REMARK    5 I    between atoms: O6_3  and  S2_58 
REMARK    6 I    between atoms: S_4  and  O2_6 
REMARK    7 I    between atoms: O3_5  and  C3_81 
REMARK    8 I    between atoms: O2_6  and  C2_11 
REMARK    9 I    between atoms: C6_7  and  C5_54 
REMARK   10 I    between atoms: O4_9  and  C4_32 
REMARK   11 I    between atoms: O4_9  and  C1_39 
REMARK   12 I    between atoms: O3_12  and  C3_18 
REMARK   13 I    between atoms: N_13  and  C2_52 
REMARK   14 I    between atoms: N_13  and  S1_45 
REMARK   15 I    between atoms: O3_17  and  C3_83 
REMARK   16 I    between atoms: C4_20  and  O4_44 
REMARK   17 I    between atoms: N_21  and  C2_66 
REMARK   18 I    between atoms: N_21  and  S1_53 
REMARK   19 I    between atoms: O3_22  and  C3_65 
REMARK   20 I    between atoms: C4_23  and  O4_74 
REMARK   21 I    between atoms: C1_25  and  O1_72 
REMARK   22 I    between atoms: C2_28  and  O2_69 
REMARK   23 I    between atoms: C4_33  and  O4_61 
REMARK   24 I    between atoms: O2S_34  and  S1_45 
REMARK   25 I    between atoms: C6_37  and  C5_47 
REMARK   26 I    between atoms: O2_38  and  C2_77 
REMARK   27 I    between atoms: O2_38  and  S_50 
REMARK   28 I    between atoms: O3S_40  and  S1_53 
REMARK   29 I    between atoms: O1S_42  and  S1_45 
REMARK   30 I    between atoms: O1S_43  and  S1_53 
REMARK   31 I    between atoms: O4_44  and  C1_46 
REMARK   32 I    between atoms: S1_45  and  O3S_60 
REMARK   33 I    between atoms: C6_48  and  C5_84 
REMARK   34 I    between atoms: C6_51  and  C5_87 
REMARK   35 I    between atoms: S1_53  and  O2S_55 
REMARK   36 I    between atoms: C1_56  and  O4_74 
REMARK   37 I    between atoms: O6_57  and  S2_82 
REMARK   38 I    between atoms: O4_61  and  C1_70 
REMARK   39 I    between atoms: C3_63  and  O3_79 
REMARK   40 I    between atoms: O2_69  and  S_76 
ROOT
ATOM      1  C3  IDS d 504     -16.425  50.528 175.796  0.00  0.00     0.185 C 
ATOM      2  C4  IDS d 504     -16.742  51.515 174.683  0.00  0.00     0.195 C 
ATOM      3  C1  IDS d 504     -16.567  48.673 174.021  0.00  0.00     0.294 C 
ATOM      4  O5  IDS d 504     -16.884  49.714 173.092  0.00  0.00    -0.340 OA
ATOM      5  C2  IDS d 504     -16.915  49.071 175.441  0.00  0.00     0.231 C 
ATOM      6  C5  IDS d 504     -16.245  50.942 173.357  0.00  0.00     0.257 C 
ENDROOT
BRANCH   2   7
ATOM      7  O4  IDS d 504     -18.145  51.728 174.629  0.00  0.00    -0.348 OA
BRANCH   7   8
ATOM      8  C1  SGN d 505     -18.711  52.088 175.859  0.00  0.00     0.282 C 
ATOM      9  O5  SGN d 505     -18.187  53.309 176.299  0.00  0.00    -0.349 OA
ATOM     10  C5  SGN d 505     -18.501  54.387 175.470  0.00  0.00     0.181 C 
ATOM     11  C4  SGN d 505     -19.976  54.629 175.469  0.00  0.00     0.186 C 
ATOM     12  C3  SGN d 505     -20.635  53.361 174.854  0.00  0.00     0.173 C 
ATOM     13  C2  SGN d 505     -20.221  52.191 175.768  0.00  0.00     0.157 C 
BRANCH  10  14
ATOM     14  C6  SGN d 505     -17.722  55.553 175.985  0.00  0.00     0.227 C 
BRANCH  14  15
ATOM     15  O6  SGN d 505     -16.689  55.000 176.727  0.00  0.00    -0.254 OA
BRANCH  15  16
ATOM     16  S2  SGN d 505     -15.233  54.851 176.312  0.00  0.00     0.251 S 
ATOM     17  O5S SGN d 505     -14.586  56.031 176.830  0.00  0.00    -0.572 OA
ATOM     18  O4S SGN d 505     -15.269  54.772 174.869  0.00  0.00    -0.572 OA
ATOM     19  O6S SGN d 505     -14.739  53.628 176.929  0.00  0.00    -0.572 OA
ENDBRANCH  15  16
ENDBRANCH  14  15
ENDBRANCH  10  14
BRANCH  11  20
ATOM     20  O4  SGN d 505     -20.168  55.827 174.747  0.00  0.00    -0.348 OA
BRANCH  20  21
ATOM     21  C1  IDS d 506     -21.322  56.592 174.823  0.00  0.00     0.294 C 
ATOM     22  C2  IDS d 506     -21.259  57.695 173.757  0.00  0.00     0.231 C 
ATOM     23  C3  IDS d 506     -22.322  58.810 173.962  0.00  0.00     0.185 C 
ATOM     24  C4  IDS d 506     -22.571  59.166 175.443  0.00  0.00     0.189 C 
ATOM     25  C5  IDS d 506     -22.535  57.908 176.317  0.00  0.00     0.256 C 
ATOM     26  O5  IDS d 506     -21.360  57.202 176.089  0.00  0.00    -0.340 OA
BRANCH  22  27
ATOM     27  O2  IDS d 506     -19.994  58.325 173.783  0.00  0.00    -0.244 OA
BRANCH  27  28
ATOM     28  S   IDS d 506     -18.900  58.386 172.632  0.00  0.00     0.252 S 
ATOM     29  O1S IDS d 506     -19.537  57.816 171.484  0.00  0.00    -0.572 OA
ATOM     30  O2S IDS d 506     -18.566  59.763 172.406  0.00  0.00    -0.572 OA
ATOM     31  O3S IDS d 506     -17.786  57.599 173.114  0.00  0.00    -0.572 OA
ENDBRANCH  27  28
ENDBRANCH  22  27
BRANCH  23  32
ATOM     32  O3  IDS d 506     -23.552  58.374 173.388  0.00  0.00    -0.390 OA
ATOM     33  H   IDS d 506     -23.565  57.405 173.349  0.00  0.00     0.210 HD
ENDBRANCH  23  32
BRANCH  24  34
ATOM     34  O4  IDS d 506     -21.547  60.049 175.838  0.00  0.00    -0.390 OA
ATOM     35  H   IDS d 506     -21.845  60.965 175.717  0.00  0.00     0.210 HD
ENDBRANCH  24  34
BRANCH  25  36
ATOM     36  C6  IDS d 506     -22.717  58.113 177.809  0.00  0.00     0.206 C 
ATOM     37  O62 IDS d 506     -22.512  57.221 178.614  0.00  0.00    -0.646 OA
ATOM     38  O61 IDS d 506     -23.066  59.204 178.239  0.00  0.00    -0.646 OA
ENDBRANCH  25  36
ENDBRANCH  20  21
ENDBRANCH  11  20
BRANCH  12  39
ATOM     39  O3  SGN d 505     -22.052  53.473 174.879  0.00  0.00    -0.391 OA
ATOM     40  H   SGN d 505     -22.449  52.607 174.696  0.00  0.00     0.210 HD
ENDBRANCH  12  39
BRANCH  13  41
ATOM     41  N   SGN d 505     -20.780  50.870 175.400  0.00  0.00    -0.210 NA
ATOM     42  H   SGN d 505     -21.715  50.810 175.803  0.00  0.00     0.140 HD
BRANCH  41  43
ATOM     43  S1  SGN d 505     -20.914  50.514 173.768  0.00  0.00     0.156 S 
BRANCH  43  44
ATOM     44  O3S SGN d 505     -19.926  49.539 173.474  0.00  0.00    -0.296 OA
ATOM     45  H   SGN d 505     -20.297  48.873 172.874  0.00  0.00     0.231 HD
ENDBRANCH  43  44
BRANCH  43  46
ATOM     46  O1S SGN d 505     -22.262  50.042 173.532  0.00  0.00    -0.296 OA
ATOM     47  H   SGN d 505     -22.474  49.341 174.166  0.00  0.00     0.231 HD
ENDBRANCH  43  46
BRANCH  43  48
ATOM     48  O2S SGN d 505     -20.641  51.761 173.092  0.00  0.00    -0.296 OA
ATOM     49  H   SGN d 505     -21.197  51.829 172.300  0.00  0.00     0.231 HD
ENDBRANCH  43  48
ENDBRANCH  41  43
ENDBRANCH  13  41
ENDBRANCH   7   8
ENDBRANCH   2   7
BRANCH   1  50
ATOM     50  O3  IDS d 504     -15.013  50.528 175.966  0.00  0.00    -0.390 OA
ATOM     51  H   IDS d 504     -14.590  50.837 175.150  0.00  0.00     0.210 HD
ENDBRANCH   1  50
BRANCH   6  52
ATOM     52  C6  IDS d 504     -16.373  51.887 172.150  0.00  0.00     0.206 C 
ATOM     53  O62 IDS d 504     -17.156  52.839 172.166  0.00  0.00    -0.646 OA
ATOM     54  O61 IDS d 504     -15.713  51.704 171.135  0.00  0.00    -0.646 OA
ENDBRANCH   6  52
BRANCH   5  55
ATOM     55  O2  IDS d 504     -18.328  48.966 175.602  0.00  0.00    -0.244 OA
BRANCH  55  56
ATOM     56  S   IDS d 504     -19.086  47.882 176.389  0.00  0.00     0.252 S 
ATOM     57  O2S IDS d 504     -20.020  48.545 177.251  0.00  0.00    -0.572 OA
ATOM     58  O3S IDS d 504     -19.673  47.085 175.377  0.00  0.00    -0.572 OA
ATOM     59  O1S IDS d 504     -18.110  47.167 177.127  0.00  0.00    -0.572 OA
ENDBRANCH  55  56
ENDBRANCH   5  55
BRANCH   3  60
ATOM     60  O4  SGN d 503     -15.215  48.314 173.983  0.00  0.00    -0.348 OA
BRANCH  60  61
ATOM     61  C4  SGN d 503     -14.934  47.256 173.127  0.00  0.00     0.186 C 
ATOM     62  C5  SGN d 503     -13.872  46.357 173.786  0.00  0.00     0.181 C 
ATOM     63  O5  SGN d 503     -13.475  45.337 172.924  0.00  0.00    -0.349 OA
ATOM     64  C1  SGN d 503     -12.882  45.807 171.739  0.00  0.00     0.282 C 
ATOM     65  C2  SGN d 503     -13.890  46.671 170.968  0.00  0.00     0.157 C 
ATOM     66  C3  SGN d 503     -14.402  47.823 171.814  0.00  0.00     0.173 C 
BRANCH  62  67
ATOM     67  C6  SGN d 503     -14.341  45.645 175.025  0.00  0.00     0.227 C 
BRANCH  67  68
ATOM     68  O6  SGN d 503     -13.323  45.765 175.995  0.00  0.00    -0.254 OA
BRANCH  68  69
ATOM     69  S2  SGN d 503     -13.455  45.383 177.493  0.00  0.00     0.251 S 
ATOM     70  O6S SGN d 503     -14.559  44.504 177.520  0.00  0.00    -0.572 OA
ATOM     71  O4S SGN d 503     -12.272  44.693 177.884  0.00  0.00    -0.572 OA
ATOM     72  O5S SGN d 503     -13.633  46.625 178.238  0.00  0.00    -0.572 OA
ENDBRANCH  68  69
ENDBRANCH  67  68
ENDBRANCH  62  67
BRANCH  64  73
ATOM     73  O4  IDS d 502     -11.707  46.523 172.003  0.00  0.00    -0.348 OA
BRANCH  73  74
ATOM     74  C4  IDS d 502     -10.548  45.736 172.103  0.00  0.00     0.195 C 
ATOM     75  C3  IDS d 502      -9.984  45.466 170.695  0.00  0.00     0.185 C 
ATOM     76  C2  IDS d 502      -9.402  46.743 170.082  0.00  0.00     0.231 C 
ATOM     77  C1  IDS d 502      -8.477  47.470 171.053  0.00  0.00     0.291 C 
ATOM     78  O5  IDS d 502      -9.094  47.659 172.302  0.00  0.00    -0.340 OA
ATOM     79  C5  IDS d 502      -9.507  46.470 172.946  0.00  0.00     0.257 C 
BRANCH  75  80
ATOM     80  O3  IDS d 502      -8.943  44.513 170.792  0.00  0.00    -0.390 OA
ATOM     81  H   IDS d 502      -8.828  44.254 171.720  0.00  0.00     0.210 HD
ENDBRANCH  75  80
BRANCH  76  82
ATOM     82  O2  IDS d 502     -10.480  47.592 169.789  0.00  0.00    -0.244 OA
BRANCH  82  83
ATOM     83  S   IDS d 502     -10.584  48.643 168.635  0.00  0.00     0.252 S 
ATOM     84  O3S IDS d 502      -9.271  49.228 168.550  0.00  0.00    -0.572 OA
ATOM     85  O2S IDS d 502     -11.612  49.573 169.041  0.00  0.00    -0.572 OA
ATOM     86  O1S IDS d 502     -10.936  47.928 167.439  0.00  0.00    -0.572 OA
ENDBRANCH  82  83
ENDBRANCH  76  82
BRANCH  77  87
ATOM     87  O1  IDS d 502      -7.286  46.735 171.146  0.00  0.00    -0.368 OA
ATOM     88  H   IDS d 502      -7.225  46.328 172.025  0.00  0.00     0.212 HD
ENDBRANCH  77  87
BRANCH  79  89
ATOM     89  C6  IDS d 502      -9.950  46.756 174.374  0.00  0.00     0.206 C 
ATOM     90  O61 IDS d 502      -9.998  45.880 175.203  0.00  0.00    -0.646 OA
ATOM     91  O62 IDS d 502     -10.262  47.879 174.719  0.00  0.00    -0.646 OA
ENDBRANCH  79  89
ENDBRANCH  73  74
ENDBRANCH  64  73
BRANCH  65  92
ATOM     92  N   SGN d 503     -13.308  47.145 169.725  0.00  0.00    -0.210 NA
ATOM     93  H   SGN d 503     -12.576  46.486 169.459  0.00  0.00     0.140 HD
BRANCH  92  94
ATOM     94  S1  SGN d 503     -14.299  47.314 168.445  0.00  0.00     0.156 S 
BRANCH  94  95
ATOM     95  O2S SGN d 503     -13.761  46.516 167.343  0.00  0.00    -0.296 OA
ATOM     96  H   SGN d 503     -12.800  46.433 167.444  0.00  0.00     0.231 HD
ENDBRANCH  94  95
BRANCH  94  97
ATOM     97  O1S SGN d 503     -14.320  48.730 168.133  0.00  0.00    -0.296 OA
ATOM     98  H   SGN d 503     -14.997  49.169 168.670  0.00  0.00     0.231 HD
ENDBRANCH  94  97
BRANCH  94  99
ATOM     99  O3S SGN d 503     -15.569  46.838 168.945  0.00  0.00    -0.296 OA
ATOM    100  H   SGN d 503     -16.124  46.558 168.201  0.00  0.00     0.231 HD
ENDBRANCH  94  99
ENDBRANCH  92  94
ENDBRANCH  65  92
BRANCH  66 101
ATOM    101  O3  SGN d 503     -15.469  48.472 171.150  0.00  0.00    -0.391 OA
ATOM    102  H   SGN d 503     -15.767  49.228 171.678  0.00  0.00     0.210 HD
ENDBRANCH  66 101
ENDBRANCH  60  61
ENDBRANCH   3  60
TORSDOF 40
ENDMDL
MODEL 80
REMARK VINA RESULT:      -2.0      4.256     12.777
REMARK WARNING: 32 MAX_TORS EXCEEDED!!!
REMARK  40 active torsions:
REMARK  status: ('A' for Active; 'I' for Inactive)
REMARK    1 I    between atoms: C6_1  and  C5_8 
REMARK    2 I    between atoms: C6_1  and  O6_57 
REMARK    3 I    between atoms: O4_2  and  C4_49 
REMARK    4 I    between atoms: O6_3  and  C6_7 
REMARK    5 I    between atoms: O6_3  and  S2_58 
REMARK    6 I    between atoms: S_4  and  O2_6 
REMARK    7 I    between atoms: O3_5  and  C3_81 
REMARK    8 I    between atoms: O2_6  and  C2_11 
REMARK    9 I    between atoms: C6_7  and  C5_54 
REMARK   10 I    between atoms: O4_9  and  C4_32 
REMARK   11 I    between atoms: O4_9  and  C1_39 
REMARK   12 I    between atoms: O3_12  and  C3_18 
REMARK   13 I    between atoms: N_13  and  C2_52 
REMARK   14 I    between atoms: N_13  and  S1_45 
REMARK   15 I    between atoms: O3_17  and  C3_83 
REMARK   16 I    between atoms: C4_20  and  O4_44 
REMARK   17 I    between atoms: N_21  and  C2_66 
REMARK   18 I    between atoms: N_21  and  S1_53 
REMARK   19 I    between atoms: O3_22  and  C3_65 
REMARK   20 I    between atoms: C4_23  and  O4_74 
REMARK   21 I    between atoms: C1_25  and  O1_72 
REMARK   22 I    between atoms: C2_28  and  O2_69 
REMARK   23 I    between atoms: C4_33  and  O4_61 
REMARK   24 I    between atoms: O2S_34  and  S1_45 
REMARK   25 I    between atoms: C6_37  and  C5_47 
REMARK   26 I    between atoms: O2_38  and  C2_77 
REMARK   27 I    between atoms: O2_38  and  S_50 
REMARK   28 I    between atoms: O3S_40  and  S1_53 
REMARK   29 I    between atoms: O1S_42  and  S1_45 
REMARK   30 I    between atoms: O1S_43  and  S1_53 
REMARK   31 I    between atoms: O4_44  and  C1_46 
REMARK   32 I    between atoms: S1_45  and  O3S_60 
REMARK   33 I    between atoms: C6_48  and  C5_84 
REMARK   34 I    between atoms: C6_51  and  C5_87 
REMARK   35 I    between atoms: S1_53  and  O2S_55 
REMARK   36 I    between atoms: C1_56  and  O4_74 
REMARK   37 I    between atoms: O6_57  and  S2_82 
REMARK   38 I    between atoms: O4_61  and  C1_70 
REMARK   39 I    between atoms: C3_63  and  O3_79 
REMARK   40 I    between atoms: O2_69  and  S_76 
ROOT
ATOM      1  C3  IDS d 504     -16.205  49.653 172.754  0.00  0.00     0.185 C 
ATOM      2  C4  IDS d 504     -17.264  48.584 172.973  0.00  0.00     0.195 C 
ATOM      3  C1  IDS d 504     -14.496  47.976 173.691  0.00  0.00     0.294 C 
ATOM      4  O5  IDS d 504     -15.604  47.087 173.866  0.00  0.00    -0.340 OA
ATOM      5  C2  IDS d 504     -14.944  49.424 173.673  0.00  0.00     0.231 C 
ATOM      6  C5  IDS d 504     -16.606  47.209 172.882  0.00  0.00     0.257 C 
ENDROOT
BRANCH   2   7
ATOM      7  O4  IDS d 504     -17.852  48.761 174.254  0.00  0.00    -0.348 OA
BRANCH   7   8
ATOM      8  C1  SGN d 505     -18.688  49.882 174.344  0.00  0.00     0.282 C 
ATOM      9  O5  SGN d 505     -19.873  49.665 173.630  0.00  0.00    -0.349 OA
ATOM     10  C5  SGN d 505     -20.658  48.634 174.146  0.00  0.00     0.181 C 
ATOM     11  C4  SGN d 505     -21.144  48.985 175.515  0.00  0.00     0.186 C 
ATOM     12  C3  SGN d 505     -19.882  49.104 176.418  0.00  0.00     0.173 C 
ATOM     13  C2  SGN d 505     -19.021  50.215 175.785  0.00  0.00     0.157 C 
BRANCH  10  14
ATOM     14  C6  SGN d 505     -21.771  48.428 173.171  0.00  0.00     0.227 C 
BRANCH  14  15
ATOM     15  O6  SGN d 505     -21.452  47.258 172.498  0.00  0.00    -0.254 OA
BRANCH  15  16
ATOM     16  S2  SGN d 505     -21.419  47.042 170.992  0.00  0.00     0.251 S 
ATOM     17  O5S SGN d 505     -22.640  47.639 170.513  0.00  0.00    -0.572 OA
ATOM     18  O4S SGN d 505     -21.350  45.607 170.828  0.00  0.00    -0.572 OA
ATOM     19  O6S SGN d 505     -20.232  47.722 170.492  0.00  0.00    -0.572 OA
ENDBRANCH  15  16
ENDBRANCH  14  15
ENDBRANCH  10  14
BRANCH  11  20
ATOM     20  O4  SGN d 505     -22.054  47.966 175.873  0.00  0.00    -0.348 OA
BRANCH  20  21
ATOM     21  C1  IDS d 506     -23.155  48.174 176.690  0.00  0.00     0.294 C 
ATOM     22  C2  IDS d 506     -23.810  46.819 176.996  0.00  0.00     0.231 C 
ATOM     23  C3  IDS d 506     -25.230  46.947 177.614  0.00  0.00     0.185 C 
ATOM     24  C4  IDS d 506     -26.063  48.103 177.020  0.00  0.00     0.189 C 
ATOM     25  C5  IDS d 506     -25.180  49.327 176.752  0.00  0.00     0.256 C 
ATOM     26  O5  IDS d 506     -24.080  48.963 175.985  0.00  0.00    -0.340 OA
BRANCH  22  27
ATOM     27  O2  IDS d 506     -23.947  46.065 175.807  0.00  0.00    -0.244 OA
BRANCH  27  28
ATOM     28  S   IDS d 506     -23.382  44.614 175.491  0.00  0.00     0.252 S 
ATOM     29  O1S IDS d 506     -22.123  44.838 174.848  0.00  0.00    -0.572 OA
ATOM     30  O2S IDS d 506     -23.210  43.921 176.736  0.00  0.00    -0.572 OA
ATOM     31  O3S IDS d 506     -24.363  43.997 174.624  0.00  0.00    -0.572 OA
ENDBRANCH  27  28
ENDBRANCH  22  27
BRANCH  23  32
ATOM     32  O3  IDS d 506     -25.095  47.159 179.017  0.00  0.00    -0.390 OA
ATOM     33  H   IDS d 506     -24.195  47.463 179.213  0.00  0.00     0.210 HD
ENDBRANCH  23  32
BRANCH  24  34
ATOM     34  O4  IDS d 506     -26.616  47.642 175.810  0.00  0.00    -0.390 OA
ATOM     35  H   IDS d 506     -26.899  48.399 175.274  0.00  0.00     0.210 HD
ENDBRANCH  24  34
BRANCH  25  36
ATOM     36  C6  IDS d 506     -25.858  50.529 176.122  0.00  0.00     0.206 C 
ATOM     37  O62 IDS d 506     -25.687  51.661 176.539  0.00  0.00    -0.646 OA
ATOM     38  O61 IDS d 506     -26.592  50.379 175.154  0.00  0.00    -0.646 OA
ENDBRANCH  25  36
ENDBRANCH  20  21
ENDBRANCH  11  20
BRANCH  12  39
ATOM     39  O3  SGN d 505     -20.245  49.508 177.732  0.00  0.00    -0.391 OA
ATOM     40  H   SGN d 505     -19.702  50.266 177.999  0.00  0.00     0.210 HD
ENDBRANCH  12  39
BRANCH  13  41
ATOM     41  N   SGN d 505     -17.773  50.542 176.513  0.00  0.00    -0.210 NA
ATOM     42  H   SGN d 505     -17.005  50.483 175.844  0.00  0.00     0.140 HD
BRANCH  41  43
ATOM     43  S1  SGN d 505     -17.679  52.042 177.254  0.00  0.00     0.156 S 
BRANCH  43  44
ATOM     44  O3S SGN d 505     -17.330  52.980 176.247  0.00  0.00    -0.296 OA
ATOM     45  H   SGN d 505     -16.647  52.600 175.674  0.00  0.00     0.231 HD
ENDBRANCH  43  44
BRANCH  43  46
ATOM     46  O1S SGN d 505     -18.966  52.312 177.859  0.00  0.00    -0.296 OA
ATOM     47  H   SGN d 505     -19.467  52.921 177.293  0.00  0.00     0.231 HD
ENDBRANCH  43  46
BRANCH  43  48
ATOM     48  O2S SGN d 505     -16.627  51.907 178.234  0.00  0.00    -0.296 OA
ATOM     49  H   SGN d 505     -16.016  51.205 177.959  0.00  0.00     0.231 HD
ENDBRANCH  43  48
ENDBRANCH  41  43
ENDBRANCH  13  41
ENDBRANCH   7   8
ENDBRANCH   2   7
BRANCH   1  50
ATOM     50  O3  IDS d 504     -15.818  49.584 171.387  0.00  0.00    -0.390 OA
ATOM     51  H   IDS d 504     -16.233  50.311 170.897  0.00  0.00     0.210 HD
ENDBRANCH   1  50
BRANCH   6  52
ATOM     52  C6  IDS d 504     -17.574  46.016 172.951  0.00  0.00     0.206 C 
ATOM     53  O62 IDS d 504     -17.782  45.424 174.012  0.00  0.00    -0.646 OA
ATOM     54  O61 IDS d 504     -18.150  45.614 171.948  0.00  0.00    -0.646 OA
ENDBRANCH   6  52
BRANCH   5  55
ATOM     55  O2  IDS d 504     -15.224  49.823 175.013  0.00  0.00    -0.244 OA
BRANCH  55  56
ATOM     56  S   IDS d 504     -14.296  50.617 175.950  0.00  0.00     0.252 S 
ATOM     57  O2S IDS d 504     -14.560  50.184 177.291  0.00  0.00    -0.572 OA
ATOM     58  O3S IDS d 504     -13.000  50.314 175.471  0.00  0.00    -0.572 OA
ATOM     59  O1S IDS d 504     -14.620  51.985 175.770  0.00  0.00    -0.572 OA
ENDBRANCH  55  56
ENDBRANCH   5  55
BRANCH   3  60
ATOM     60  O4  SGN d 503     -13.784  47.722 172.515  0.00  0.00    -0.348 OA
BRANCH  60  61
ATOM     61  C4  SGN d 503     -12.886  46.665 172.614  0.00  0.00     0.186 C 
ATOM     62  C5  SGN d 503     -11.456  47.233 172.626  0.00  0.00     0.181 C 
ATOM     63  O5  SGN d 503     -10.511  46.209 172.618  0.00  0.00    -0.349 OA
ATOM     64  C1  SGN d 503     -10.578  45.396 171.472  0.00  0.00     0.282 C 
ATOM     65  C2  SGN d 503     -11.958  44.726 171.399  0.00  0.00     0.157 C 
ATOM     66  C3  SGN d 503     -13.078  45.751 171.406  0.00  0.00     0.173 C 
BRANCH  62  67
ATOM     67  C6  SGN d 503     -11.121  48.048 173.846  0.00  0.00     0.227 C 
BRANCH  67  68
ATOM     68  O6  SGN d 503      -9.746  47.871 174.111  0.00  0.00    -0.254 OA
BRANCH  68  69
ATOM     69  S2  SGN d 503      -8.678  48.996 174.128  0.00  0.00     0.251 S 
ATOM     70  O6S SGN d 503      -8.048  48.842 175.381  0.00  0.00    -0.572 OA
ATOM     71  O4S SGN d 503      -7.748  48.745 173.079  0.00  0.00    -0.572 OA
ATOM     72  O5S SGN d 503      -9.384  50.259 173.940  0.00  0.00    -0.572 OA
ENDBRANCH  68  69
ENDBRANCH  67  68
ENDBRANCH  62  67
BRANCH  64  73
ATOM     73  O4  IDS d 502     -10.315  46.129 170.307  0.00  0.00    -0.348 OA
BRANCH  73  74
ATOM     74  C4  IDS d 502      -9.179  46.953 170.374  0.00  0.00     0.195 C 
ATOM     75  C3  IDS d 502      -7.925  46.086 170.596  0.00  0.00     0.185 C 
ATOM     76  C2  IDS d 502      -7.600  45.262 169.347  0.00  0.00     0.231 C 
ATOM     77  C1  IDS d 502      -7.618  46.115 168.083  0.00  0.00     0.291 C 
ATOM     78  O5  IDS d 502      -8.805  46.862 167.987  0.00  0.00    -0.340 OA
ATOM     79  C5  IDS d 502      -9.043  47.738 169.071  0.00  0.00     0.257 C 
BRANCH  75  80
ATOM     80  O3  IDS d 502      -6.823  46.932 170.863  0.00  0.00    -0.390 OA
ATOM     81  H   IDS d 502      -6.013  46.524 170.521  0.00  0.00     0.210 HD
ENDBRANCH  75  80
BRANCH  76  82
ATOM     82  O2  IDS d 502      -8.595  44.281 169.224  0.00  0.00    -0.244 OA
BRANCH  82  83
ATOM     83  S   IDS d 502      -8.477  42.753 169.536  0.00  0.00     0.252 S 
ATOM     84  O3S IDS d 502      -8.971  42.613 170.881  0.00  0.00    -0.572 OA
ATOM     85  O2S IDS d 502      -7.077  42.428 169.393  0.00  0.00    -0.572 OA
ATOM     86  O1S IDS d 502      -9.299  42.059 168.584  0.00  0.00    -0.572 OA
ENDBRANCH  82  83
ENDBRANCH  76  82
BRANCH  77  87
ATOM     87  O1  IDS d 502      -6.471  46.923 168.090  0.00  0.00    -0.368 OA
ATOM     88  H   IDS d 502      -6.401  47.377 168.945  0.00  0.00     0.212 HD
ENDBRANCH  77  87
BRANCH  79  89
ATOM     89  C6  IDS d 502     -10.217  48.659 168.772  0.00  0.00     0.206 C 
ATOM     90  O61 IDS d 502     -10.934  49.067 169.653  0.00  0.00    -0.646 OA
ATOM     91  O62 IDS d 502     -10.462  49.012 167.634  0.00  0.00    -0.646 OA
ENDBRANCH  79  89
ENDBRANCH  73  74
ENDBRANCH  64  73
BRANCH  65  92
ATOM     92  N   SGN d 503     -12.041  43.859 170.237  0.00  0.00    -0.210 NA
ATOM     93  H   SGN d 503     -11.129  43.869 169.782  0.00  0.00     0.140 HD
BRANCH  92  94
ATOM     94  S1  SGN d 503     -12.443  42.302 170.487  0.00  0.00     0.156 S 
BRANCH  94  95
ATOM     95  O2S SGN d 503     -11.807  41.859 171.727  0.00  0.00    -0.296 OA
ATOM     96  H   SGN d 503     -12.392  41.236 172.185  0.00  0.00     0.231 HD
ENDBRANCH  94  95
BRANCH  94  97
ATOM     97  O1S SGN d 503     -11.957  41.569 169.333  0.00  0.00    -0.296 OA
ATOM     98  H   SGN d 503     -12.631  41.582 168.635  0.00  0.00     0.231 HD
ENDBRANCH  94  97
BRANCH  94  99
ATOM     99  O3S SGN d 503     -13.887  42.339 170.551  0.00  0.00    -0.296 OA
ATOM    100  H   SGN d 503     -14.168  42.369 171.478  0.00  0.00     0.231 HD
ENDBRANCH  94  99
ENDBRANCH  92  94
ENDBRANCH  65  92
BRANCH  66 101
ATOM    101  O3  SGN d 503     -14.327  45.098 171.542  0.00  0.00    -0.391 OA
ATOM    102  H   SGN d 503     -14.801  45.127 170.697  0.00  0.00     0.210 HD
ENDBRANCH  66 101
ENDBRANCH  60  61
ENDBRANCH   3  60
TORSDOF 40
ENDMDL
MODEL 81
REMARK VINA RESULT:      -2.0      4.745     12.416
REMARK WARNING: 32 MAX_TORS EXCEEDED!!!
REMARK  40 active torsions:
REMARK  status: ('A' for Active; 'I' for Inactive)
REMARK    1 I    between atoms: C6_1  and  C5_8 
REMARK    2 I    between atoms: C6_1  and  O6_57 
REMARK    3 I    between atoms: O4_2  and  C4_49 
REMARK    4 I    between atoms: O6_3  and  C6_7 
REMARK    5 I    between atoms: O6_3  and  S2_58 
REMARK    6 I    between atoms: S_4  and  O2_6 
REMARK    7 I    between atoms: O3_5  and  C3_81 
REMARK    8 I    between atoms: O2_6  and  C2_11 
REMARK    9 I    between atoms: C6_7  and  C5_54 
REMARK   10 I    between atoms: O4_9  and  C4_32 
REMARK   11 I    between atoms: O4_9  and  C1_39 
REMARK   12 I    between atoms: O3_12  and  C3_18 
REMARK   13 I    between atoms: N_13  and  C2_52 
REMARK   14 I    between atoms: N_13  and  S1_45 
REMARK   15 I    between atoms: O3_17  and  C3_83 
REMARK   16 I    between atoms: C4_20  and  O4_44 
REMARK   17 I    between atoms: N_21  and  C2_66 
REMARK   18 I    between atoms: N_21  and  S1_53 
REMARK   19 I    between atoms: O3_22  and  C3_65 
REMARK   20 I    between atoms: C4_23  and  O4_74 
REMARK   21 I    between atoms: C1_25  and  O1_72 
REMARK   22 I    between atoms: C2_28  and  O2_69 
REMARK   23 I    between atoms: C4_33  and  O4_61 
REMARK   24 I    between atoms: O2S_34  and  S1_45 
REMARK   25 I    between atoms: C6_37  and  C5_47 
REMARK   26 I    between atoms: O2_38  and  C2_77 
REMARK   27 I    between atoms: O2_38  and  S_50 
REMARK   28 I    between atoms: O3S_40  and  S1_53 
REMARK   29 I    between atoms: O1S_42  and  S1_45 
REMARK   30 I    between atoms: O1S_43  and  S1_53 
REMARK   31 I    between atoms: O4_44  and  C1_46 
REMARK   32 I    between atoms: S1_45  and  O3S_60 
REMARK   33 I    between atoms: C6_48  and  C5_84 
REMARK   34 I    between atoms: C6_51  and  C5_87 
REMARK   35 I    between atoms: S1_53  and  O2S_55 
REMARK   36 I    between atoms: C1_56  and  O4_74 
REMARK   37 I    between atoms: O6_57  and  S2_82 
REMARK   38 I    between atoms: O4_61  and  C1_70 
REMARK   39 I    between atoms: C3_63  and  O3_79 
REMARK   40 I    between atoms: O2_69  and  S_76 
ROOT
ATOM      1  C3  IDS d 504     -15.237  49.915 174.152  0.00  0.00     0.185 C 
ATOM      2  C4  IDS d 504     -15.902  48.576 173.873  0.00  0.00     0.195 C 
ATOM      3  C1  IDS d 504     -13.480  48.619 175.510  0.00  0.00     0.294 C 
ATOM      4  O5  IDS d 504     -14.231  47.444 175.186  0.00  0.00    -0.340 OA
ATOM      5  C2  IDS d 504     -14.342  49.863 175.450  0.00  0.00     0.231 C 
ATOM      6  C5  IDS d 504     -14.841  47.478 173.915  0.00  0.00     0.257 C 
ENDROOT
BRANCH   2   7
ATOM      7  O4  IDS d 504     -16.898  48.331 174.855  0.00  0.00    -0.348 OA
BRANCH   7   8
ATOM      8  C1  SGN d 505     -18.150  48.877 174.540  0.00  0.00     0.282 C 
ATOM      9  O5  SGN d 505     -18.945  47.929 173.887  0.00  0.00    -0.349 OA
ATOM     10  C5  SGN d 505     -19.264  46.824 174.676  0.00  0.00     0.181 C 
ATOM     11  C4  SGN d 505     -20.111  47.238 175.835  0.00  0.00     0.186 C 
ATOM     12  C3  SGN d 505     -19.241  48.194 176.702  0.00  0.00     0.173 C 
ATOM     13  C2  SGN d 505     -18.870  49.371 175.780  0.00  0.00     0.157 C 
BRANCH  10  14
ATOM     14  C6  SGN d 505     -19.951  45.850 173.774  0.00  0.00     0.227 C 
BRANCH  14  15
ATOM     15  O6  SGN d 505     -18.950  45.333 172.967  0.00  0.00    -0.254 OA
BRANCH  15  16
ATOM     16  S2  SGN d 505     -18.945  43.991 172.250  0.00  0.00     0.251 S 
ATOM     17  O5S SGN d 505     -18.677  44.318 170.871  0.00  0.00    -0.572 OA
ATOM     18  O4S SGN d 505     -20.259  43.441 172.491  0.00  0.00    -0.572 OA
ATOM     19  O6S SGN d 505     -17.883  43.194 172.850  0.00  0.00    -0.572 OA
ENDBRANCH  15  16
ENDBRANCH  14  15
ENDBRANCH  10  14
BRANCH  11  20
ATOM     20  O4  SGN d 505     -20.514  46.041 176.465  0.00  0.00    -0.348 OA
BRANCH  20  21
ATOM     21  C1  IDS d 506     -21.394  45.996 177.535  0.00  0.00     0.294 C 
ATOM     22  C2  IDS d 506     -21.341  44.596 178.164  0.00  0.00     0.231 C 
ATOM     23  C3  IDS d 506     -22.513  44.317 179.145  0.00  0.00     0.185 C 
ATOM     24  C4  IDS d 506     -23.860  44.921 178.691  0.00  0.00     0.189 C 
ATOM     25  C5  IDS d 506     -23.648  46.295 178.047  0.00  0.00     0.256 C 
ATOM     26  O5  IDS d 506     -22.692  46.210 177.043  0.00  0.00    -0.340 OA
BRANCH  22  27
ATOM     27  O2  IDS d 506     -21.406  43.607 177.156  0.00  0.00    -0.244 OA
BRANCH  27  28
ATOM     28  S   IDS d 506     -21.210  42.037 177.303  0.00  0.00     0.252 S 
ATOM     29  O1S IDS d 506     -22.532  41.508 177.443  0.00  0.00    -0.572 OA
ATOM     30  O2S IDS d 506     -20.583  41.551 176.107  0.00  0.00    -0.572 OA
ATOM     31  O3S IDS d 506     -20.397  41.858 178.487  0.00  0.00    -0.572 OA
ENDBRANCH  27  28
ENDBRANCH  22  27
BRANCH  23  32
ATOM     32  O3  IDS d 506     -22.178  44.864 180.418  0.00  0.00    -0.390 OA
ATOM     33  H   IDS d 506     -21.219  45.003 180.468  0.00  0.00     0.210 HD
ENDBRANCH  23  32
BRANCH  24  34
ATOM     34  O4  IDS d 506     -24.418  44.036 177.749  0.00  0.00    -0.390 OA
ATOM     35  H   IDS d 506     -25.384  44.028 177.845  0.00  0.00     0.210 HD
ENDBRANCH  24  34
BRANCH  25  36
ATOM     36  C6  IDS d 506     -24.885  46.990 177.508  0.00  0.00     0.206 C 
ATOM     37  O62 IDS d 506     -24.991  48.204 177.497  0.00  0.00    -0.646 OA
ATOM     38  O61 IDS d 506     -25.808  46.329 177.053  0.00  0.00    -0.646 OA
ENDBRANCH  25  36
ENDBRANCH  20  21
ENDBRANCH  11  20
BRANCH  12  39
ATOM     39  O3  SGN d 505     -19.994  48.698 177.797  0.00  0.00    -0.391 OA
ATOM     40  H   SGN d 505     -20.678  48.056 178.043  0.00  0.00     0.210 HD
ENDBRANCH  12  39
BRANCH  13  41
ATOM     41  N   SGN d 505     -18.071  50.446 176.414  0.00  0.00    -0.210 NA
ATOM     42  H   SGN d 505     -17.202  50.533 175.887  0.00  0.00     0.140 HD
BRANCH  41  43
ATOM     43  S1  SGN d 505     -18.758  51.972 176.503  0.00  0.00     0.156 S 
BRANCH  43  44
ATOM     44  O3S SGN d 505     -18.008  52.815 175.643  0.00  0.00    -0.296 OA
ATOM     45  H   SGN d 505     -17.099  52.889 175.975  0.00  0.00     0.231 HD
ENDBRANCH  43  44
BRANCH  43  46
ATOM     46  O1S SGN d 505     -20.146  51.850 176.107  0.00  0.00    -0.296 OA
ATOM     47  H   SGN d 505     -20.255  52.188 175.205  0.00  0.00     0.231 HD
ENDBRANCH  43  46
BRANCH  43  48
ATOM     48  O2S SGN d 505     -18.612  52.365 177.885  0.00  0.00    -0.296 OA
ATOM     49  H   SGN d 505     -17.704  52.668 178.041  0.00  0.00     0.231 HD
ENDBRANCH  43  48
ENDBRANCH  41  43
ENDBRANCH  13  41
ENDBRANCH   7   8
ENDBRANCH   2   7
BRANCH   1  50
ATOM     50  O3  IDS d 504     -14.426  50.223 173.026  0.00  0.00    -0.390 OA
ATOM     51  H   IDS d 504     -14.288  49.420 172.498  0.00  0.00     0.210 HD
ENDBRANCH   1  50
BRANCH   6  52
ATOM     52  C6  IDS d 504     -15.336  46.077 173.519  0.00  0.00     0.206 C 
ATOM     53  O62 IDS d 504     -15.957  45.893 172.470  0.00  0.00    -0.646 OA
ATOM     54  O61 IDS d 504     -15.139  45.111 174.246  0.00  0.00    -0.646 OA
ENDBRANCH   6  52
BRANCH   5  55
ATOM     55  O2  IDS d 504     -15.157  49.901 176.620  0.00  0.00    -0.244 OA
BRANCH  55  56
ATOM     56  S   IDS d 504     -14.754  50.437 178.005  0.00  0.00     0.252 S 
ATOM     57  O2S IDS d 504     -13.521  51.152 177.852  0.00  0.00    -0.572 OA
ATOM     58  O3S IDS d 504     -15.859  51.233 178.389  0.00  0.00    -0.572 OA
ATOM     59  O1S IDS d 504     -14.601  49.305 178.844  0.00  0.00    -0.572 OA
ENDBRANCH  55  56
ENDBRANCH   5  55
BRANCH   3  60
ATOM     60  O4  SGN d 503     -12.382  48.803 174.663  0.00  0.00    -0.348 OA
BRANCH  60  61
ATOM     61  C4  SGN d 503     -11.221  48.172 175.096  0.00  0.00     0.186 C 
ATOM     62  C5  SGN d 503     -10.037  49.136 174.910  0.00  0.00     0.181 C 
ATOM     63  O5  SGN d 503      -8.831  48.516 175.229  0.00  0.00    -0.349 OA
ATOM     64  C1  SGN d 503      -8.540  47.408 174.414  0.00  0.00     0.282 C 
ATOM     65  C2  SGN d 503      -9.640  46.349 174.575  0.00  0.00     0.157 C 
ATOM     66  C3  SGN d 503     -11.012  46.914 174.256  0.00  0.00     0.173 C 
BRANCH  62  67
ATOM     67  C6  SGN d 503     -10.082  50.354 175.792  0.00  0.00     0.227 C 
BRANCH  67  68
ATOM     68  O6  SGN d 503      -8.901  50.364 176.564  0.00  0.00    -0.254 OA
BRANCH  68  69
ATOM     69  S2  SGN d 503      -7.840  51.496 176.577  0.00  0.00     0.251 S 
ATOM     70  O6S SGN d 503      -7.681  51.792 177.947  0.00  0.00    -0.572 OA
ATOM     71  O4S SGN d 503      -6.626  50.977 176.044  0.00  0.00    -0.572 OA
ATOM     72  O5S SGN d 503      -8.369  52.588 175.765  0.00  0.00    -0.572 OA
ENDBRANCH  68  69
ENDBRANCH  67  68
ENDBRANCH  62  67
BRANCH  64  73
ATOM     73  O4  IDS d 502      -8.399  47.783 173.071  0.00  0.00    -0.348 OA
BRANCH  73  74
ATOM     74  C4  IDS d 502      -7.096  48.147 172.695  0.00  0.00     0.195 C 
ATOM     75  C3  IDS d 502      -6.379  46.935 172.071  0.00  0.00     0.185 C 
ATOM     76  C2  IDS d 502      -6.978  46.589 170.704  0.00  0.00     0.231 C 
ATOM     77  C1  IDS d 502      -7.120  47.822 169.817  0.00  0.00     0.291 C 
ATOM     78  O5  IDS d 502      -7.784  48.862 170.490  0.00  0.00    -0.340 OA
ATOM     79  C5  IDS d 502      -7.160  49.290 171.684  0.00  0.00     0.257 C 
BRANCH  75  80
ATOM     80  O3  IDS d 502      -5.014  47.254 171.884  0.00  0.00    -0.390 OA
ATOM     81  H   IDS d 502      -4.817  47.287 170.935  0.00  0.00     0.210 HD
ENDBRANCH  75  80
BRANCH  76  82
ATOM     82  O2  IDS d 502      -8.259  46.066 170.931  0.00  0.00    -0.244 OA
BRANCH  82  83
ATOM     83  S   IDS d 502      -8.935  44.846 170.221  0.00  0.00     0.252 S 
ATOM     84  O3S IDS d 502      -8.568  43.706 171.021  0.00  0.00    -0.572 OA
ATOM     85  O2S IDS d 502      -8.391  44.818 168.883  0.00  0.00    -0.572 OA
ATOM     86  O1S IDS d 502     -10.352  45.080 170.231  0.00  0.00    -0.572 OA
ENDBRANCH  82  83
ENDBRANCH  76  82
BRANCH  77  87
ATOM     87  O1  IDS d 502      -5.838  48.192 169.383  0.00  0.00    -0.368 OA
ATOM     88  H   IDS d 502      -5.914  48.865 168.689  0.00  0.00     0.212 HD
ENDBRANCH  77  87
BRANCH  79  89
ATOM     89  C6  IDS d 502      -7.819  50.556 172.212  0.00  0.00     0.206 C 
ATOM     90  O61 IDS d 502      -8.985  50.789 172.005  0.00  0.00    -0.646 OA
ATOM     91  O62 IDS d 502      -7.187  51.366 172.863  0.00  0.00    -0.646 OA
ENDBRANCH  79  89
ENDBRANCH  73  74
ENDBRANCH  64  73
BRANCH  65  92
ATOM     92  N   SGN d 503      -9.346  45.182 173.762  0.00  0.00    -0.210 NA
ATOM     93  H   SGN d 503      -8.427  45.325 173.344  0.00  0.00     0.140 HD
BRANCH  92  94
ATOM     94  S1  SGN d 503      -9.323  43.734 174.504  0.00  0.00     0.156 S 
BRANCH  94  95
ATOM     95  O2S SGN d 503      -8.324  42.897 173.841  0.00  0.00    -0.296 OA
ATOM     96  H   SGN d 503      -7.517  43.414 173.692  0.00  0.00     0.231 HD
ENDBRANCH  94  95
BRANCH  94  97
ATOM     97  O1S SGN d 503     -10.662  43.190 174.373  0.00  0.00    -0.296 OA
ATOM     98  H   SGN d 503     -11.102  43.205 175.238  0.00  0.00     0.231 HD
ENDBRANCH  94  97
BRANCH  94  99
ATOM     99  O3S SGN d 503      -8.992  44.067 175.871  0.00  0.00    -0.296 OA
ATOM    100  H   SGN d 503      -9.795  44.042 176.413  0.00  0.00     0.231 HD
ENDBRANCH  94  99
ENDBRANCH  92  94
ENDBRANCH  65  92
BRANCH  66 101
ATOM    101  O3  SGN d 503     -12.013  45.978 174.608  0.00  0.00    -0.391 OA
ATOM    102  H   SGN d 503     -12.843  46.209 174.163  0.00  0.00     0.210 HD
ENDBRANCH  66 101
ENDBRANCH  60  61
ENDBRANCH   3  60
TORSDOF 40
ENDMDL
MODEL 82
REMARK VINA RESULT:      -1.9      4.780      7.622
REMARK WARNING: 32 MAX_TORS EXCEEDED!!!
REMARK  40 active torsions:
REMARK  status: ('A' for Active; 'I' for Inactive)
REMARK    1 I    between atoms: C6_1  and  C5_8 
REMARK    2 I    between atoms: C6_1  and  O6_57 
REMARK    3 I    between atoms: O4_2  and  C4_49 
REMARK    4 I    between atoms: O6_3  and  C6_7 
REMARK    5 I    between atoms: O6_3  and  S2_58 
REMARK    6 I    between atoms: S_4  and  O2_6 
REMARK    7 I    between atoms: O3_5  and  C3_81 
REMARK    8 I    between atoms: O2_6  and  C2_11 
REMARK    9 I    between atoms: C6_7  and  C5_54 
REMARK   10 I    between atoms: O4_9  and  C4_32 
REMARK   11 I    between atoms: O4_9  and  C1_39 
REMARK   12 I    between atoms: O3_12  and  C3_18 
REMARK   13 I    between atoms: N_13  and  C2_52 
REMARK   14 I    between atoms: N_13  and  S1_45 
REMARK   15 I    between atoms: O3_17  and  C3_83 
REMARK   16 I    between atoms: C4_20  and  O4_44 
REMARK   17 I    between atoms: N_21  and  C2_66 
REMARK   18 I    between atoms: N_21  and  S1_53 
REMARK   19 I    between atoms: O3_22  and  C3_65 
REMARK   20 I    between atoms: C4_23  and  O4_74 
REMARK   21 I    between atoms: C1_25  and  O1_72 
REMARK   22 I    between atoms: C2_28  and  O2_69 
REMARK   23 I    between atoms: C4_33  and  O4_61 
REMARK   24 I    between atoms: O2S_34  and  S1_45 
REMARK   25 I    between atoms: C6_37  and  C5_47 
REMARK   26 I    between atoms: O2_38  and  C2_77 
REMARK   27 I    between atoms: O2_38  and  S_50 
REMARK   28 I    between atoms: O3S_40  and  S1_53 
REMARK   29 I    between atoms: O1S_42  and  S1_45 
REMARK   30 I    between atoms: O1S_43  and  S1_53 
REMARK   31 I    between atoms: O4_44  and  C1_46 
REMARK   32 I    between atoms: S1_45  and  O3S_60 
REMARK   33 I    between atoms: C6_48  and  C5_84 
REMARK   34 I    between atoms: C6_51  and  C5_87 
REMARK   35 I    between atoms: S1_53  and  O2S_55 
REMARK   36 I    between atoms: C1_56  and  O4_74 
REMARK   37 I    between atoms: O6_57  and  S2_82 
REMARK   38 I    between atoms: O4_61  and  C1_70 
REMARK   39 I    between atoms: C3_63  and  O3_79 
REMARK   40 I    between atoms: O2_69  and  S_76 
ROOT
ATOM      1  C3  IDS d 504     -17.815  51.236 176.314  0.00  0.00     0.185 C 
ATOM      2  C4  IDS d 504     -16.600  50.648 175.614  0.00  0.00     0.195 C 
ATOM      3  C1  IDS d 504     -19.057  51.014 174.074  0.00  0.00     0.294 C 
ATOM      4  O5  IDS d 504     -17.828  50.502 173.549  0.00  0.00    -0.340 OA
ATOM      5  C2  IDS d 504     -18.821  51.888 175.289  0.00  0.00     0.231 C 
ATOM      6  C5  IDS d 504     -17.072  49.751 174.471  0.00  0.00     0.257 C 
ENDROOT
BRANCH   2   7
ATOM      7  O4  IDS d 504     -15.794  51.702 175.108  0.00  0.00    -0.348 OA
BRANCH   7   8
ATOM      8  C1  SGN d 505     -14.989  52.317 176.077  0.00  0.00     0.282 C 
ATOM      9  O5  SGN d 505     -14.099  51.390 176.631  0.00  0.00    -0.349 OA
ATOM     10  C5  SGN d 505     -13.175  50.883 175.718  0.00  0.00     0.181 C 
ATOM     11  C4  SGN d 505     -12.274  51.972 175.232  0.00  0.00     0.186 C 
ATOM     12  C3  SGN d 505     -13.174  52.986 174.468  0.00  0.00     0.173 C 
ATOM     13  C2  SGN d 505     -14.209  53.481 175.497  0.00  0.00     0.157 C 
BRANCH  10  14
ATOM     14  C6  SGN d 505     -12.438  49.795 176.429  0.00  0.00     0.227 C 
BRANCH  14  15
ATOM     15  O6  SGN d 505     -13.381  48.803 176.652  0.00  0.00    -0.254 OA
BRANCH  15  16
ATOM     16  S2  SGN d 505     -13.789  48.206 177.991  0.00  0.00     0.251 S 
ATOM     17  O5S SGN d 505     -13.228  46.878 177.980  0.00  0.00    -0.572 OA
ATOM     18  O4S SGN d 505     -15.234  48.245 177.985  0.00  0.00    -0.572 OA
ATOM     19  O6S SGN d 505     -13.208  49.049 179.027  0.00  0.00    -0.572 OA
ENDBRANCH  15  16
ENDBRANCH  14  15
ENDBRANCH  10  14
BRANCH  11  20
ATOM     20  O4  SGN d 505     -11.283  51.333 174.455  0.00  0.00    -0.348 OA
BRANCH  20  21
ATOM     21  C1  IDS d 506      -9.968  51.766 174.383  0.00  0.00     0.294 C 
ATOM     22  C2  IDS d 506      -9.195  50.852 173.421  0.00  0.00     0.231 C 
ATOM     23  C3  IDS d 506      -7.653  51.023 173.514  0.00  0.00     0.185 C 
ATOM     24  C4  IDS d 506      -7.141  51.260 174.951  0.00  0.00     0.189 C 
ATOM     25  C5  IDS d 506      -8.107  52.160 175.730  0.00  0.00     0.256 C 
ATOM     26  O5  IDS d 506      -9.397  51.648 175.661  0.00  0.00    -0.340 OA
BRANCH  22  27
ATOM     27  O2  IDS d 506      -9.475  49.496 173.709  0.00  0.00    -0.244 OA
BRANCH  27  28
ATOM     28  S   IDS d 506     -10.011  48.371 172.724  0.00  0.00     0.252 S 
ATOM     29  O1S IDS d 506     -11.252  47.940 173.292  0.00  0.00    -0.572 OA
ATOM     30  O2S IDS d 506     -10.213  48.966 171.434  0.00  0.00    -0.572 OA
ATOM     31  O3S IDS d 506      -8.996  47.339 172.725  0.00  0.00    -0.572 OA
ENDBRANCH  27  28
ENDBRANCH  22  27
BRANCH  23  32
ATOM     32  O3  IDS d 506      -7.272  52.134 172.708  0.00  0.00    -0.390 OA
ATOM     33  H   IDS d 506      -8.060  52.516 172.289  0.00  0.00     0.210 HD
ENDBRANCH  23  32
BRANCH  24  34
ATOM     34  O4  IDS d 506      -7.053  50.002 175.577  0.00  0.00    -0.390 OA
ATOM     35  H   IDS d 506      -6.898  50.123 176.527  0.00  0.00     0.210 HD
ENDBRANCH  24  34
BRANCH  25  36
ATOM     36  C6  IDS d 506      -7.753  52.441 177.179  0.00  0.00     0.206 C 
ATOM     37  O62 IDS d 506      -7.627  51.548 177.998  0.00  0.00    -0.646 OA
ATOM     38  O61 IDS d 506      -7.571  53.592 177.551  0.00  0.00    -0.646 OA
ENDBRANCH  25  36
ENDBRANCH  20  21
ENDBRANCH  11  20
BRANCH  12  39
ATOM     39  O3  SGN d 505     -12.408  54.100 174.028  0.00  0.00    -0.391 OA
ATOM     40  H   SGN d 505     -11.463  53.899 174.119  0.00  0.00     0.210 HD
ENDBRANCH  12  39
BRANCH  13  41
ATOM     41  N   SGN d 505     -15.157  54.506 175.001  0.00  0.00    -0.210 NA
ATOM     42  H   SGN d 505     -16.099  54.186 175.226  0.00  0.00     0.140 HD
BRANCH  41  43
ATOM     43  S1  SGN d 505     -14.998  56.062 175.602  0.00  0.00     0.156 S 
BRANCH  43  44
ATOM     44  O3S SGN d 505     -13.747  56.556 175.146  0.00  0.00    -0.296 OA
ATOM     45  H   SGN d 505     -13.127  55.818 175.040  0.00  0.00     0.231 HD
ENDBRANCH  43  44
BRANCH  43  46
ATOM     46  O1S SGN d 505     -16.122  56.835 175.118  0.00  0.00    -0.296 OA
ATOM     47  H   SGN d 505     -16.893  56.671 175.682  0.00  0.00     0.231 HD
ENDBRANCH  43  46
BRANCH  43  48
ATOM     48  O2S SGN d 505     -15.011  55.909 177.038  0.00  0.00    -0.296 OA
ATOM     49  H   SGN d 505     -14.914  54.971 177.265  0.00  0.00     0.231 HD
ENDBRANCH  43  48
ENDBRANCH  41  43
ENDBRANCH  13  41
ENDBRANCH   7   8
ENDBRANCH   2   7
BRANCH   1  50
ATOM     50  O3  IDS d 504     -18.458  50.170 177.001  0.00  0.00    -0.390 OA
ATOM     51  H   IDS d 504     -18.968  50.527 177.746  0.00  0.00     0.210 HD
ENDBRANCH   1  50
BRANCH   6  52
ATOM     52  C6  IDS d 504     -15.958  48.976 173.748  0.00  0.00     0.206 C 
ATOM     53  O62 IDS d 504     -15.638  49.252 172.590  0.00  0.00    -0.646 OA
ATOM     54  O61 IDS d 504     -15.374  48.052 174.299  0.00  0.00    -0.646 OA
ENDBRANCH   6  52
BRANCH   5  55
ATOM     55  O2  IDS d 504     -18.331  53.151 174.844  0.00  0.00    -0.244 OA
BRANCH  55  56
ATOM     56  S   IDS d 504     -18.713  54.535 175.402  0.00  0.00     0.252 S 
ATOM     57  O2S IDS d 504     -20.116  54.512 175.695  0.00  0.00    -0.572 OA
ATOM     58  O3S IDS d 504     -17.872  54.683 176.530  0.00  0.00    -0.572 OA
ATOM     59  O1S IDS d 504     -18.406  55.474 174.386  0.00  0.00    -0.572 OA
ENDBRANCH  55  56
ENDBRANCH   5  55
BRANCH   3  60
ATOM     60  O4  SGN d 503     -19.952  49.999 174.429  0.00  0.00    -0.348 OA
BRANCH  60  61
ATOM     61  C4  SGN d 503     -21.085  49.936 173.626  0.00  0.00     0.186 C 
ATOM     62  C5  SGN d 503     -22.301  49.617 174.512  0.00  0.00     0.181 C 
ATOM     63  O5  SGN d 503     -23.449  49.438 173.742  0.00  0.00    -0.349 OA
ATOM     64  C1  SGN d 503     -23.353  48.363 172.841  0.00  0.00     0.282 C 
ATOM     65  C2  SGN d 503     -22.197  48.616 171.862  0.00  0.00     0.157 C 
ATOM     66  C3  SGN d 503     -20.884  48.832 172.591  0.00  0.00     0.173 C 
BRANCH  62  67
ATOM     67  C6  SGN d 503     -22.665  50.705 175.486  0.00  0.00     0.227 C 
BRANCH  67  68
ATOM     68  O6  SGN d 503     -23.653  51.507 174.877  0.00  0.00    -0.254 OA
BRANCH  68  69
ATOM     69  S2  SGN d 503     -23.628  53.056 174.784  0.00  0.00     0.251 S 
ATOM     70  O6S SGN d 503     -24.965  53.396 174.485  0.00  0.00    -0.572 OA
ATOM     71  O4S SGN d 503     -23.265  53.575 176.059  0.00  0.00    -0.572 OA
ATOM     72  O5S SGN d 503     -22.655  53.407 173.755  0.00  0.00    -0.572 OA
ENDBRANCH  68  69
ENDBRANCH  67  68
ENDBRANCH  62  67
BRANCH  64  73
ATOM     73  O4  IDS d 502     -23.184  47.144 173.511  0.00  0.00    -0.348 OA
BRANCH  73  74
ATOM     74  C4  IDS d 502     -24.379  46.504 173.879  0.00  0.00     0.195 C 
ATOM     75  C3  IDS d 502     -24.781  45.494 172.787  0.00  0.00     0.185 C 
ATOM     76  C2  IDS d 502     -23.820  44.301 172.764  0.00  0.00     0.231 C 
ATOM     77  C1  IDS d 502     -23.586  43.732 174.160  0.00  0.00     0.291 C 
ATOM     78  O5  IDS d 502     -23.229  44.742 175.070  0.00  0.00    -0.340 OA
ATOM     79  C5  IDS d 502     -24.179  45.779 175.208  0.00  0.00     0.257 C 
BRANCH  75  80
ATOM     80  O3  IDS d 502     -26.078  45.006 173.068  0.00  0.00    -0.390 OA
ATOM     81  H   IDS d 502     -26.073  44.547 173.922  0.00  0.00     0.210 HD
ENDBRANCH  75  80
BRANCH  76  82
ATOM     82  O2  IDS d 502     -22.591  44.765 172.272  0.00  0.00    -0.244 OA
BRANCH  82  83
ATOM     83  S   IDS d 502     -21.693  44.112 171.171  0.00  0.00     0.252 S 
ATOM     84  O3S IDS d 502     -22.497  44.141 169.976  0.00  0.00    -0.572 OA
ATOM     85  O2S IDS d 502     -21.397  42.779 171.642  0.00  0.00    -0.572 OA
ATOM     86  O1S IDS d 502     -20.513  44.923 171.048  0.00  0.00    -0.572 OA
ENDBRANCH  82  83
ENDBRANCH  76  82
BRANCH  77  87
ATOM     87  O1  IDS d 502     -24.746  43.044 174.546  0.00  0.00    -0.368 OA
ATOM     88  H   IDS d 502     -25.516  43.625 174.442  0.00  0.00     0.212 HD
ENDBRANCH  77  87
BRANCH  79  89
ATOM     89  C6  IDS d 502     -23.814  46.694 176.369  0.00  0.00     0.206 C 
ATOM     90  O61 IDS d 502     -22.864  46.460 177.076  0.00  0.00    -0.646 OA
ATOM     91  O62 IDS d 502     -24.469  47.689 176.612  0.00  0.00    -0.646 OA
ENDBRANCH  79  89
ENDBRANCH  73  74
ENDBRANCH  64  73
BRANCH  65  92
ATOM     92  N   SGN d 503     -22.098  47.530 170.902  0.00  0.00    -0.210 NA
ATOM     93  H   SGN d 503     -22.882  46.901 171.070  0.00  0.00     0.140 HD
BRANCH  92  94
ATOM     94  S1  SGN d 503     -22.114  47.918 169.322  0.00  0.00     0.156 S 
BRANCH  94  95
ATOM     95  O2S SGN d 503     -20.742  48.210 168.909  0.00  0.00    -0.296 OA
ATOM     96  H   SGN d 503     -20.413  48.977 169.403  0.00  0.00     0.231 HD
ENDBRANCH  94  95
BRANCH  94  97
ATOM     97  O1S SGN d 503     -22.978  49.077 169.199  0.00  0.00    -0.296 OA
ATOM     98  H   SGN d 503     -23.380  49.088 168.316  0.00  0.00     0.231 HD
ENDBRANCH  94  97
BRANCH  94  99
ATOM     99  O3S SGN d 503     -22.675  46.741 168.697  0.00  0.00    -0.296 OA
ATOM    100  H   SGN d 503     -21.975  46.259 168.230  0.00  0.00     0.231 HD
ENDBRANCH  94  99
ENDBRANCH  92  94
ENDBRANCH  65  92
BRANCH  66 101
ATOM    101  O3  SGN d 503     -19.891  49.259 171.678  0.00  0.00    -0.391 OA
ATOM    102  H   SGN d 503     -19.257  49.834 172.135  0.00  0.00     0.210 HD
ENDBRANCH  66 101
ENDBRANCH  60  61
ENDBRANCH   3  60
TORSDOF 40
ENDMDL
MODEL 83
REMARK VINA RESULT:      -1.9      1.697      3.788
REMARK WARNING: 32 MAX_TORS EXCEEDED!!!
REMARK  40 active torsions:
REMARK  status: ('A' for Active; 'I' for Inactive)
REMARK    1 I    between atoms: C6_1  and  C5_8 
REMARK    2 I    between atoms: C6_1  and  O6_57 
REMARK    3 I    between atoms: O4_2  and  C4_49 
REMARK    4 I    between atoms: O6_3  and  C6_7 
REMARK    5 I    between atoms: O6_3  and  S2_58 
REMARK    6 I    between atoms: S_4  and  O2_6 
REMARK    7 I    between atoms: O3_5  and  C3_81 
REMARK    8 I    between atoms: O2_6  and  C2_11 
REMARK    9 I    between atoms: C6_7  and  C5_54 
REMARK   10 I    between atoms: O4_9  and  C4_32 
REMARK   11 I    between atoms: O4_9  and  C1_39 
REMARK   12 I    between atoms: O3_12  and  C3_18 
REMARK   13 I    between atoms: N_13  and  C2_52 
REMARK   14 I    between atoms: N_13  and  S1_45 
REMARK   15 I    between atoms: O3_17  and  C3_83 
REMARK   16 I    between atoms: C4_20  and  O4_44 
REMARK   17 I    between atoms: N_21  and  C2_66 
REMARK   18 I    between atoms: N_21  and  S1_53 
REMARK   19 I    between atoms: O3_22  and  C3_65 
REMARK   20 I    between atoms: C4_23  and  O4_74 
REMARK   21 I    between atoms: C1_25  and  O1_72 
REMARK   22 I    between atoms: C2_28  and  O2_69 
REMARK   23 I    between atoms: C4_33  and  O4_61 
REMARK   24 I    between atoms: O2S_34  and  S1_45 
REMARK   25 I    between atoms: C6_37  and  C5_47 
REMARK   26 I    between atoms: O2_38  and  C2_77 
REMARK   27 I    between atoms: O2_38  and  S_50 
REMARK   28 I    between atoms: O3S_40  and  S1_53 
REMARK   29 I    between atoms: O1S_42  and  S1_45 
REMARK   30 I    between atoms: O1S_43  and  S1_53 
REMARK   31 I    between atoms: O4_44  and  C1_46 
REMARK   32 I    between atoms: S1_45  and  O3S_60 
REMARK   33 I    between atoms: C6_48  and  C5_84 
REMARK   34 I    between atoms: C6_51  and  C5_87 
REMARK   35 I    between atoms: S1_53  and  O2S_55 
REMARK   36 I    between atoms: C1_56  and  O4_74 
REMARK   37 I    between atoms: O6_57  and  S2_82 
REMARK   38 I    between atoms: O4_61  and  C1_70 
REMARK   39 I    between atoms: C3_63  and  O3_79 
REMARK   40 I    between atoms: O2_69  and  S_76 
ROOT
ATOM      1  C3  IDS d 504     -16.964  49.939 175.110  0.00  0.00     0.185 C 
ATOM      2  C4  IDS d 504     -16.173  49.798 173.819  0.00  0.00     0.195 C 
ATOM      3  C1  IDS d 504     -16.677  52.482 174.862  0.00  0.00     0.294 C 
ATOM      4  O5  IDS d 504     -15.926  52.189 173.679  0.00  0.00    -0.340 OA
ATOM      5  C2  IDS d 504     -16.673  51.314 175.827  0.00  0.00     0.231 C 
ATOM      6  C5  IDS d 504     -16.375  51.054 172.973  0.00  0.00     0.257 C 
ENDROOT
BRANCH   2   7
ATOM      7  O4  IDS d 504     -14.796  49.633 174.127  0.00  0.00    -0.348 OA
BRANCH   7   8
ATOM      8  C1  SGN d 505     -14.463  48.342 174.559  0.00  0.00     0.282 C 
ATOM      9  O5  SGN d 505     -14.435  47.457 173.476  0.00  0.00    -0.349 OA
ATOM     10  C5  SGN d 505     -13.446  47.749 172.537  0.00  0.00     0.181 C 
ATOM     11  C4  SGN d 505     -12.090  47.588 173.144  0.00  0.00     0.186 C 
ATOM     12  C3  SGN d 505     -11.981  48.647 174.279  0.00  0.00     0.173 C 
ATOM     13  C2  SGN d 505     -13.120  48.320 175.264  0.00  0.00     0.157 C 
BRANCH  10  14
ATOM     14  C6  SGN d 505     -13.678  46.828 171.383  0.00  0.00     0.227 C 
BRANCH  14  15
ATOM     15  O6  SGN d 505     -13.767  47.653 170.273  0.00  0.00    -0.254 OA
BRANCH  15  16
ATOM     16  S2  SGN d 505     -14.430  47.336 168.940  0.00  0.00     0.251 S 
ATOM     17  O5S SGN d 505     -14.238  48.525 168.148  0.00  0.00    -0.572 OA
ATOM     18  O4S SGN d 505     -15.808  47.055 169.273  0.00  0.00    -0.572 OA
ATOM     19  O6S SGN d 505     -13.738  46.180 168.387  0.00  0.00    -0.572 OA
ENDBRANCH  15  16
ENDBRANCH  14  15
ENDBRANCH  10  14
BRANCH  11  20
ATOM     20  O4  SGN d 505     -11.172  47.738 172.080  0.00  0.00    -0.348 OA
BRANCH  20  21
ATOM     21  C1  IDS d 506      -9.969  47.053 172.003  0.00  0.00     0.294 C 
ATOM     22  C2  IDS d 506      -9.173  47.581 170.801  0.00  0.00     0.231 C 
ATOM     23  C3  IDS d 506      -7.974  46.674 170.410  0.00  0.00     0.185 C 
ATOM     24  C4  IDS d 506      -8.265  45.164 170.554  0.00  0.00     0.189 C 
ATOM     25  C5  IDS d 506      -9.118  44.893 171.798  0.00  0.00     0.256 C 
ATOM     26  O5  IDS d 506     -10.253  45.694 171.783  0.00  0.00    -0.340 OA
BRANCH  22  27
ATOM     27  O2  IDS d 506     -10.009  47.668 169.664  0.00  0.00    -0.244 OA
BRANCH  27  28
ATOM     28  S   IDS d 506      -9.641  48.194 168.210  0.00  0.00     0.252 S 
ATOM     29  O1S IDS d 506     -10.893  48.554 167.618  0.00  0.00    -0.572 OA
ATOM     30  O2S IDS d 506      -8.790  49.341 168.353  0.00  0.00    -0.572 OA
ATOM     31  O3S IDS d 506      -8.995  47.082 167.548  0.00  0.00    -0.572 OA
ENDBRANCH  27  28
ENDBRANCH  22  27
BRANCH  23  32
ATOM     32  O3  IDS d 506      -6.866  47.003 171.244  0.00  0.00    -0.390 OA
ATOM     33  H   IDS d 506      -6.139  47.341 170.698  0.00  0.00     0.210 HD
ENDBRANCH  23  32
BRANCH  24  34
ATOM     34  O4  IDS d 506      -8.964  44.762 169.400  0.00  0.00    -0.390 OA
ATOM     35  H   IDS d 506      -8.499  45.082 168.612  0.00  0.00     0.210 HD
ENDBRANCH  24  34
BRANCH  25  36
ATOM     36  C6  IDS d 506      -9.524  43.451 172.041  0.00  0.00     0.206 C 
ATOM     37  O62 IDS d 506     -10.364  43.147 172.870  0.00  0.00    -0.646 OA
ATOM     38  O61 IDS d 506      -9.014  42.553 171.385  0.00  0.00    -0.646 OA
ENDBRANCH  25  36
ENDBRANCH  20  21
ENDBRANCH  11  20
BRANCH  12  39
ATOM     39  O3  SGN d 505     -10.742  48.519 174.964  0.00  0.00    -0.391 OA
ATOM     40  H   SGN d 505     -10.063  49.037 174.504  0.00  0.00     0.210 HD
ENDBRANCH  12  39
BRANCH  13  41
ATOM     41  N   SGN d 505     -13.185  49.181 176.467  0.00  0.00    -0.210 NA
ATOM     42  H   SGN d 505     -13.835  49.940 176.266  0.00  0.00     0.140 HD
BRANCH  41  43
ATOM     43  S1  SGN d 505     -13.674  48.469 177.903  0.00  0.00     0.156 S 
BRANCH  43  44
ATOM     44  O3S SGN d 505     -13.236  47.119 177.867  0.00  0.00    -0.296 OA
ATOM     45  H   SGN d 505     -13.731  46.600 178.520  0.00  0.00     0.231 HD
ENDBRANCH  43  44
BRANCH  43  46
ATOM     46  O1S SGN d 505     -13.088  49.225 178.989  0.00  0.00    -0.296 OA
ATOM     47  H   SGN d 505     -12.129  49.283 178.861  0.00  0.00     0.231 HD
ENDBRANCH  43  46
BRANCH  43  48
ATOM     48  O2S SGN d 505     -15.116  48.554 177.888  0.00  0.00    -0.296 OA
ATOM     49  H   SGN d 505     -15.490  47.794 178.360  0.00  0.00     0.231 HD
ENDBRANCH  43  48
ENDBRANCH  41  43
ENDBRANCH  13  41
ENDBRANCH   7   8
ENDBRANCH   2   7
BRANCH   1  50
ATOM     50  O3  IDS d 504     -18.342  49.864 174.766  0.00  0.00    -0.390 OA
ATOM     51  H   IDS d 504     -18.607  48.933 174.696  0.00  0.00     0.210 HD
ENDBRANCH   1  50
BRANCH   6  52
ATOM     52  C6  IDS d 504     -15.743  51.007 171.573  0.00  0.00     0.206 C 
ATOM     53  O62 IDS d 504     -15.208  52.003 171.081  0.00  0.00    -0.646 OA
ATOM     54  O61 IDS d 504     -15.770  49.982 170.904  0.00  0.00    -0.646 OA
ENDBRANCH   6  52
BRANCH   5  55
ATOM     55  O2  IDS d 504     -15.405  51.277 176.480  0.00  0.00    -0.244 OA
BRANCH  55  56
ATOM     56  S   IDS d 504     -14.987  52.084 177.722  0.00  0.00     0.252 S 
ATOM     57  O2S IDS d 504     -13.562  51.983 177.845  0.00  0.00    -0.572 OA
ATOM     58  O3S IDS d 504     -15.470  53.386 177.452  0.00  0.00    -0.572 OA
ATOM     59  O1S IDS d 504     -15.650  51.492 178.826  0.00  0.00    -0.572 OA
ENDBRANCH  55  56
ENDBRANCH   5  55
BRANCH   3  60
ATOM     60  O4  SGN d 503     -18.005  52.818 174.583  0.00  0.00    -0.348 OA
BRANCH  60  61
ATOM     61  C4  SGN d 503     -18.280  54.177 174.688  0.00  0.00     0.186 C 
ATOM     62  C5  SGN d 503     -19.672  54.446 174.090  0.00  0.00     0.181 C 
ATOM     63  O5  SGN d 503     -19.954  55.811 174.074  0.00  0.00    -0.349 OA
ATOM     64  C1  SGN d 503     -19.060  56.556 173.286  0.00  0.00     0.282 C 
ATOM     65  C2  SGN d 503     -17.637  56.404 173.841  0.00  0.00     0.157 C 
ATOM     66  C3  SGN d 503     -17.216  54.948 173.911  0.00  0.00     0.173 C 
BRANCH  62  67
ATOM     67  C6  SGN d 503     -20.810  53.833 174.861  0.00  0.00     0.227 C 
BRANCH  67  68
ATOM     68  O6  SGN d 503     -21.487  52.953 173.991  0.00  0.00    -0.254 OA
BRANCH  68  69
ATOM     69  S2  SGN d 503     -21.367  51.406 173.998  0.00  0.00     0.251 S 
ATOM     70  O6S SGN d 503     -20.949  51.108 175.312  0.00  0.00    -0.572 OA
ATOM     71  O4S SGN d 503     -22.658  50.856 173.759  0.00  0.00    -0.572 OA
ATOM     72  O5S SGN d 503     -20.418  51.046 172.950  0.00  0.00    -0.572 OA
ENDBRANCH  68  69
ENDBRANCH  67  68
ENDBRANCH  62  67
BRANCH  64  73
ATOM     73  O4  IDS d 502     -19.117  56.168 171.940  0.00  0.00    -0.348 OA
BRANCH  73  74
ATOM     74  C4  IDS d 502     -20.032  56.890 171.157  0.00  0.00     0.195 C 
ATOM     75  C3  IDS d 502     -19.292  58.007 170.396  0.00  0.00     0.185 C 
ATOM     76  C2  IDS d 502     -18.391  57.423 169.305  0.00  0.00     0.231 C 
ATOM     77  C1  IDS d 502     -19.125  56.394 168.451  0.00  0.00     0.291 C 
ATOM     78  O5  IDS d 502     -19.762  55.429 169.250  0.00  0.00    -0.340 OA
ATOM     79  C5  IDS d 502     -20.707  55.946 170.165  0.00  0.00     0.257 C 
BRANCH  75  80
ATOM     80  O3  IDS d 502     -20.245  58.848 169.775  0.00  0.00    -0.390 OA
ATOM     81  H   IDS d 502     -20.246  59.713 170.213  0.00  0.00     0.210 HD
ENDBRANCH  75  80
BRANCH  76  82
ATOM     82  O2  IDS d 502     -17.326  56.775 169.948  0.00  0.00    -0.244 OA
BRANCH  82  83
ATOM     83  S   IDS d 502     -15.800  57.101 169.838  0.00  0.00     0.252 S 
ATOM     84  O3S IDS d 502     -15.489  56.940 168.441  0.00  0.00    -0.572 OA
ATOM     85  O2S IDS d 502     -15.131  56.151 170.697  0.00  0.00    -0.572 OA
ATOM     86  O1S IDS d 502     -15.621  58.456 170.278  0.00  0.00    -0.572 OA
ENDBRANCH  82  83
ENDBRANCH  76  82
BRANCH  77  87
ATOM     87  O1  IDS d 502     -20.020  57.083 167.620  0.00  0.00    -0.368 OA
ATOM     88  H   IDS d 502     -20.823  56.552 167.498  0.00  0.00     0.212 HD
ENDBRANCH  77  87
BRANCH  79  89
ATOM     89  C6  IDS d 502     -21.501  54.821 170.814  0.00  0.00     0.206 C 
ATOM     90  O61 IDS d 502     -21.194  53.665 170.655  0.00  0.00    -0.646 OA
ATOM     91  O62 IDS d 502     -22.464  55.059 171.517  0.00  0.00    -0.646 OA
ENDBRANCH  79  89
ENDBRANCH  73  74
ENDBRANCH  64  73
BRANCH  65  92
ATOM     92  N   SGN d 503     -16.699  57.189 173.058  0.00  0.00    -0.210 NA
ATOM     93  H   SGN d 503     -17.231  57.922 172.589  0.00  0.00     0.140 HD
BRANCH  92  94
ATOM     94  S1  SGN d 503     -15.473  57.909 173.851  0.00  0.00     0.156 S 
BRANCH  94  95
ATOM     95  O2S SGN d 503     -14.263  57.118 173.636  0.00  0.00    -0.296 OA
ATOM     96  H   SGN d 503     -14.038  57.122 172.692  0.00  0.00     0.231 HD
ENDBRANCH  94  95
BRANCH  94  97
ATOM     97  O1S SGN d 503     -15.860  57.944 175.249  0.00  0.00    -0.296 OA
ATOM     98  H   SGN d 503     -15.717  57.070 175.645  0.00  0.00     0.231 HD
ENDBRANCH  94  97
BRANCH  94  99
ATOM     99  O3S SGN d 503     -15.424  59.227 173.258  0.00  0.00    -0.296 OA
ATOM    100  H   SGN d 503     -16.311  59.482 172.964  0.00  0.00     0.231 HD
ENDBRANCH  94  99
ENDBRANCH  92  94
ENDBRANCH  65  92
BRANCH  66 101
ATOM    101  O3  SGN d 503     -15.991  54.833 174.611  0.00  0.00    -0.391 OA
ATOM    102  H   SGN d 503     -16.064  55.284 175.466  0.00  0.00     0.210 HD
ENDBRANCH  66 101
ENDBRANCH  60  61
ENDBRANCH   3  60
TORSDOF 40
ENDMDL
MODEL 84
REMARK VINA RESULT:      -1.8      4.525     12.001
REMARK WARNING: 32 MAX_TORS EXCEEDED!!!
REMARK  40 active torsions:
REMARK  status: ('A' for Active; 'I' for Inactive)
REMARK    1 I    between atoms: C6_1  and  C5_8 
REMARK    2 I    between atoms: C6_1  and  O6_57 
REMARK    3 I    between atoms: O4_2  and  C4_49 
REMARK    4 I    between atoms: O6_3  and  C6_7 
REMARK    5 I    between atoms: O6_3  and  S2_58 
REMARK    6 I    between atoms: S_4  and  O2_6 
REMARK    7 I    between atoms: O3_5  and  C3_81 
REMARK    8 I    between atoms: O2_6  and  C2_11 
REMARK    9 I    between atoms: C6_7  and  C5_54 
REMARK   10 I    between atoms: O4_9  and  C4_32 
REMARK   11 I    between atoms: O4_9  and  C1_39 
REMARK   12 I    between atoms: O3_12  and  C3_18 
REMARK   13 I    between atoms: N_13  and  C2_52 
REMARK   14 I    between atoms: N_13  and  S1_45 
REMARK   15 I    between atoms: O3_17  and  C3_83 
REMARK   16 I    between atoms: C4_20  and  O4_44 
REMARK   17 I    between atoms: N_21  and  C2_66 
REMARK   18 I    between atoms: N_21  and  S1_53 
REMARK   19 I    between atoms: O3_22  and  C3_65 
REMARK   20 I    between atoms: C4_23  and  O4_74 
REMARK   21 I    between atoms: C1_25  and  O1_72 
REMARK   22 I    between atoms: C2_28  and  O2_69 
REMARK   23 I    between atoms: C4_33  and  O4_61 
REMARK   24 I    between atoms: O2S_34  and  S1_45 
REMARK   25 I    between atoms: C6_37  and  C5_47 
REMARK   26 I    between atoms: O2_38  and  C2_77 
REMARK   27 I    between atoms: O2_38  and  S_50 
REMARK   28 I    between atoms: O3S_40  and  S1_53 
REMARK   29 I    between atoms: O1S_42  and  S1_45 
REMARK   30 I    between atoms: O1S_43  and  S1_53 
REMARK   31 I    between atoms: O4_44  and  C1_46 
REMARK   32 I    between atoms: S1_45  and  O3S_60 
REMARK   33 I    between atoms: C6_48  and  C5_84 
REMARK   34 I    between atoms: C6_51  and  C5_87 
REMARK   35 I    between atoms: S1_53  and  O2S_55 
REMARK   36 I    between atoms: C1_56  and  O4_74 
REMARK   37 I    between atoms: O6_57  and  S2_82 
REMARK   38 I    between atoms: O4_61  and  C1_70 
REMARK   39 I    between atoms: C3_63  and  O3_79 
REMARK   40 I    between atoms: O2_69  and  S_76 
ROOT
ATOM      1  C3  IDS d 504     -16.229  49.611 172.972  0.00  0.00     0.185 C 
ATOM      2  C4  IDS d 504     -16.882  48.666 171.976  0.00  0.00     0.195 C 
ATOM      3  C1  IDS d 504     -14.449  47.793 173.340  0.00  0.00     0.294 C 
ATOM      4  O5  IDS d 504     -15.191  47.007 172.402  0.00  0.00    -0.340 OA
ATOM      5  C2  IDS d 504     -15.323  48.837 174.005  0.00  0.00     0.231 C 
ATOM      6  C5  IDS d 504     -15.810  47.755 171.381  0.00  0.00     0.257 C 
ENDROOT
BRANCH   2   7
ATOM      7  O4  IDS d 504     -17.868  47.890 172.642  0.00  0.00    -0.348 OA
BRANCH   7   8
ATOM      8  C1  SGN d 505     -18.968  48.635 173.090  0.00  0.00     0.282 C 
ATOM      9  O5  SGN d 505     -19.648  49.202 172.006  0.00  0.00    -0.349 OA
ATOM     10  C5  SGN d 505     -20.222  48.263 171.149  0.00  0.00     0.181 C 
ATOM     11  C4  SGN d 505     -21.290  47.496 171.859  0.00  0.00     0.186 C 
ATOM     12  C3  SGN d 505     -20.589  46.712 173.005  0.00  0.00     0.173 C 
ATOM     13  C2  SGN d 505     -19.927  47.781 173.897  0.00  0.00     0.157 C 
BRANCH  10  14
ATOM     14  C6  SGN d 505     -20.739  49.029 169.975  0.00  0.00     0.227 C 
BRANCH  14  15
ATOM     15  O6  SGN d 505     -21.454  50.086 170.518  0.00  0.00    -0.254 OA
BRANCH  15  16
ATOM     16  S2  SGN d 505     -22.463  50.977 169.807  0.00  0.00     0.251 S 
ATOM     17  O5S SGN d 505     -22.297  52.271 170.420  0.00  0.00    -0.572 OA
ATOM     18  O4S SGN d 505     -23.743  50.355 170.058  0.00  0.00    -0.572 OA
ATOM     19  O6S SGN d 505     -22.105  50.979 168.395  0.00  0.00    -0.572 OA
ENDBRANCH  15  16
ENDBRANCH  14  15
ENDBRANCH  10  14
BRANCH  11  20
ATOM     20  O4  SGN d 505     -21.914  46.703 170.871  0.00  0.00    -0.348 OA
BRANCH  20  21
ATOM     21  C1  IDS d 506     -23.227  46.264 170.956  0.00  0.00     0.294 C 
ATOM     22  C2  IDS d 506     -23.688  45.802 169.566  0.00  0.00     0.231 C 
ATOM     23  C3  IDS d 506     -25.226  45.610 169.461  0.00  0.00     0.185 C 
ATOM     24  C4  IDS d 506     -26.039  46.662 170.246  0.00  0.00     0.189 C 
ATOM     25  C5  IDS d 506     -25.352  46.998 171.573  0.00  0.00     0.256 C 
ATOM     26  O5  IDS d 506     -24.027  47.351 171.349  0.00  0.00    -0.340 OA
BRANCH  22  27
ATOM     27  O2  IDS d 506     -23.327  46.760 168.591  0.00  0.00    -0.244 OA
BRANCH  27  28
ATOM     28  S   IDS d 506     -23.620  46.733 167.029  0.00  0.00     0.252 S 
ATOM     29  O1S IDS d 506     -22.407  47.180 166.416  0.00  0.00    -0.572 OA
ATOM     30  O2S IDS d 506     -23.919  45.380 166.654  0.00  0.00    -0.572 OA
ATOM     31  O3S IDS d 506     -24.729  47.641 166.827  0.00  0.00    -0.572 OA
ENDBRANCH  27  28
ENDBRANCH  22  27
BRANCH  23  32
ATOM     32  O3  IDS d 506     -25.556  44.317 169.961  0.00  0.00    -0.390 OA
ATOM     33  H   IDS d 506     -26.222  44.401 170.661  0.00  0.00     0.210 HD
ENDBRANCH  23  32
BRANCH  24  34
ATOM     34  O4  IDS d 506     -26.114  47.816 169.443  0.00  0.00    -0.390 OA
ATOM     35  H   IDS d 506     -26.702  48.464 169.862  0.00  0.00     0.210 HD
ENDBRANCH  24  34
BRANCH  25  36
ATOM     36  C6  IDS d 506     -26.016  48.058 172.432  0.00  0.00     0.206 C 
ATOM     37  O62 IDS d 506     -26.257  49.175 172.009  0.00  0.00    -0.646 OA
ATOM     38  O61 IDS d 506     -26.342  47.797 173.582  0.00  0.00    -0.646 OA
ENDBRANCH  25  36
ENDBRANCH  20  21
ENDBRANCH  11  20
BRANCH  12  39
ATOM     39  O3  SGN d 505     -21.545  46.005 173.784  0.00  0.00    -0.391 OA
ATOM     40  H   SGN d 505     -21.087  45.411 174.399  0.00  0.00     0.210 HD
ENDBRANCH  12  39
BRANCH  13  41
ATOM     41  N   SGN d 505     -19.231  47.263 175.097  0.00  0.00    -0.210 NA
ATOM     42  H   SGN d 505     -18.509  47.939 175.347  0.00  0.00     0.140 HD
BRANCH  41  43
ATOM     43  S1  SGN d 505     -20.154  46.985 176.468  0.00  0.00     0.156 S 
BRANCH  43  44
ATOM     44  O3S SGN d 505     -20.419  45.591 176.513  0.00  0.00    -0.296 OA
ATOM     45  H   SGN d 505     -19.624  45.121 176.809  0.00  0.00     0.231 HD
ENDBRANCH  43  44
BRANCH  43  46
ATOM     46  O1S SGN d 505     -19.396  47.454 177.609  0.00  0.00    -0.296 OA
ATOM     47  H   SGN d 505     -19.494  48.415 177.689  0.00  0.00     0.231 HD
ENDBRANCH  43  46
BRANCH  43  48
ATOM     48  O2S SGN d 505     -21.365  47.745 176.261  0.00  0.00    -0.296 OA
ATOM     49  H   SGN d 505     -21.929  47.286 175.619  0.00  0.00     0.231 HD
ENDBRANCH  43  48
ENDBRANCH  41  43
ENDBRANCH  13  41
ENDBRANCH   7   8
ENDBRANCH   2   7
BRANCH   1  50
ATOM     50  O3  IDS d 504     -15.430  50.519 172.224  0.00  0.00    -0.390 OA
ATOM     51  H   IDS d 504     -14.649  50.765 172.744  0.00  0.00     0.210 HD
ENDBRANCH   1  50
BRANCH   6  52
ATOM     52  C6  IDS d 504     -16.294  46.827 170.254  0.00  0.00     0.206 C 
ATOM     53  O62 IDS d 504     -17.325  47.074 169.624  0.00  0.00    -0.646 OA
ATOM     54  O61 IDS d 504     -15.676  45.810 169.967  0.00  0.00    -0.646 OA
ENDBRANCH   6  52
BRANCH   5  55
ATOM     55  O2  IDS d 504     -16.130  48.187 174.986  0.00  0.00    -0.244 OA
BRANCH  55  56
ATOM     56  S   IDS d 504     -16.389  48.664 176.426  0.00  0.00     0.252 S 
ATOM     57  O2S IDS d 504     -17.506  49.562 176.391  0.00  0.00    -0.572 OA
ATOM     58  O3S IDS d 504     -16.614  47.463 177.140  0.00  0.00    -0.572 OA
ATOM     59  O1S IDS d 504     -15.206  49.318 176.850  0.00  0.00    -0.572 OA
ENDBRANCH  55  56
ENDBRANCH   5  55
BRANCH   3  60
ATOM     60  O4  SGN d 503     -13.359  48.443 172.751  0.00  0.00    -0.348 OA
BRANCH  60  61
ATOM     61  C4  SGN d 503     -12.157  47.756 172.871  0.00  0.00     0.186 C 
ATOM     62  C5  SGN d 503     -11.296  48.452 173.940  0.00  0.00     0.181 C 
ATOM     63  O5  SGN d 503     -10.035  47.865 174.026  0.00  0.00    -0.349 OA
ATOM     64  C1  SGN d 503      -9.294  47.957 172.835  0.00  0.00     0.282 C 
ATOM     65  C2  SGN d 503     -10.044  47.232 171.708  0.00  0.00     0.157 C 
ATOM     66  C3  SGN d 503     -11.445  47.786 171.521  0.00  0.00     0.173 C 
BRANCH  62  67
ATOM     67  C6  SGN d 503     -11.849  48.367 175.337  0.00  0.00     0.227 C 
BRANCH  67  68
ATOM     68  O6  SGN d 503     -11.694  47.035 175.776  0.00  0.00    -0.254 OA
BRANCH  68  69
ATOM     69  S2  SGN d 503     -12.644  46.288 176.748  0.00  0.00     0.251 S 
ATOM     70  O6S SGN d 503     -11.875  45.192 177.193  0.00  0.00    -0.572 OA
ATOM     71  O4S SGN d 503     -12.940  47.154 177.838  0.00  0.00    -0.572 OA
ATOM     72  O5S SGN d 503     -13.842  45.937 175.990  0.00  0.00    -0.572 OA
ENDBRANCH  68  69
ENDBRANCH  67  68
ENDBRANCH  62  67
BRANCH  64  73
ATOM     73  O4  IDS d 502      -9.040  49.292 172.490  0.00  0.00    -0.348 OA
BRANCH  73  74
ATOM     74  C4  IDS d 502      -7.990  49.894 173.202  0.00  0.00     0.195 C 
ATOM     75  C3  IDS d 502      -6.668  49.701 172.436  0.00  0.00     0.185 C 
ATOM     76  C2  IDS d 502      -6.652  50.537 171.153  0.00  0.00     0.231 C 
ATOM     77  C1  IDS d 502      -7.082  51.978 171.407  0.00  0.00     0.291 C 
ATOM     78  O5  IDS d 502      -8.296  52.032 172.114  0.00  0.00    -0.340 OA
ATOM     79  C5  IDS d 502      -8.280  51.384 173.371  0.00  0.00     0.257 C 
BRANCH  75  80
ATOM     80  O3  IDS d 502      -5.597  50.130 173.253  0.00  0.00    -0.390 OA
ATOM     81  H   IDS d 502      -5.687  49.739 174.135  0.00  0.00     0.210 HD
ENDBRANCH  75  80
BRANCH  76  82
ATOM     82  O2  IDS d 502      -7.572  49.959 170.266  0.00  0.00    -0.244 OA
BRANCH  82  83
ATOM     83  S   IDS d 502      -7.303  49.426 168.820  0.00  0.00     0.252 S 
ATOM     84  O3S IDS d 502      -8.612  49.231 168.252  0.00  0.00    -0.572 OA
ATOM     85  O2S IDS d 502      -6.551  48.204 168.983  0.00  0.00    -0.572 OA
ATOM     86  O1S IDS d 502      -6.558  50.438 168.125  0.00  0.00    -0.572 OA
ENDBRANCH  82  83
ENDBRANCH  76  82
BRANCH  77  87
ATOM     87  O1  IDS d 502      -6.037  52.629 172.081  0.00  0.00    -0.368 OA
ATOM     88  H   IDS d 502      -6.398  53.137 172.824  0.00  0.00     0.212 HD
ENDBRANCH  77  87
BRANCH  79  89
ATOM     89  C6  IDS d 502      -9.551  51.689 174.150  0.00  0.00     0.206 C 
ATOM     90  O61 IDS d 502     -10.443  52.341 173.664  0.00  0.00    -0.646 OA
ATOM     91  O62 IDS d 502      -9.704  51.278 175.284  0.00  0.00    -0.646 OA
ENDBRANCH  79  89
ENDBRANCH  73  74
ENDBRANCH  64  73
BRANCH  65  92
ATOM     92  N   SGN d 503      -9.283  47.290 170.472  0.00  0.00    -0.210 NA
ATOM     93  H   SGN d 503      -8.456  47.860 170.648  0.00  0.00     0.140 HD
BRANCH  92  94
ATOM     94  S1  SGN d 503      -8.776  45.882 169.833  0.00  0.00     0.156 S 
BRANCH  94  95
ATOM     95  O2S SGN d 503      -8.535  46.088 168.406  0.00  0.00    -0.296 OA
ATOM     96  H   SGN d 503      -9.227  46.661 168.041  0.00  0.00     0.231 HD
ENDBRANCH  94  95
BRANCH  94  97
ATOM     97  O1S SGN d 503      -9.838  44.923 170.073  0.00  0.00    -0.296 OA
ATOM     98  H   SGN d 503      -9.559  44.048 169.762  0.00  0.00     0.231 HD
ENDBRANCH  94  97
BRANCH  94  99
ATOM     99  O3S SGN d 503      -7.581  45.585 170.591  0.00  0.00    -0.296 OA
ATOM    100  H   SGN d 503      -7.047  46.390 170.680  0.00  0.00     0.231 HD
ENDBRANCH  94  99
ENDBRANCH  92  94
ENDBRANCH  65  92
BRANCH  66 101
ATOM    101  O3  SGN d 503     -12.170  46.968 170.623  0.00  0.00    -0.391 OA
ATOM    102  H   SGN d 503     -12.977  47.429 170.345  0.00  0.00     0.210 HD
ENDBRANCH  66 101
ENDBRANCH  60  61
ENDBRANCH   3  60
TORSDOF 40
ENDMDL
MODEL 85
REMARK VINA RESULT:      -1.6      1.757      2.688
REMARK WARNING: 32 MAX_TORS EXCEEDED!!!
REMARK  40 active torsions:
REMARK  status: ('A' for Active; 'I' for Inactive)
REMARK    1 I    between atoms: C6_1  and  C5_8 
REMARK    2 I    between atoms: C6_1  and  O6_57 
REMARK    3 I    between atoms: O4_2  and  C4_49 
REMARK    4 I    between atoms: O6_3  and  C6_7 
REMARK    5 I    between atoms: O6_3  and  S2_58 
REMARK    6 I    between atoms: S_4  and  O2_6 
REMARK    7 I    between atoms: O3_5  and  C3_81 
REMARK    8 I    between atoms: O2_6  and  C2_11 
REMARK    9 I    between atoms: C6_7  and  C5_54 
REMARK   10 I    between atoms: O4_9  and  C4_32 
REMARK   11 I    between atoms: O4_9  and  C1_39 
REMARK   12 I    between atoms: O3_12  and  C3_18 
REMARK   13 I    between atoms: N_13  and  C2_52 
REMARK   14 I    between atoms: N_13  and  S1_45 
REMARK   15 I    between atoms: O3_17  and  C3_83 
REMARK   16 I    between atoms: C4_20  and  O4_44 
REMARK   17 I    between atoms: N_21  and  C2_66 
REMARK   18 I    between atoms: N_21  and  S1_53 
REMARK   19 I    between atoms: O3_22  and  C3_65 
REMARK   20 I    between atoms: C4_23  and  O4_74 
REMARK   21 I    between atoms: C1_25  and  O1_72 
REMARK   22 I    between atoms: C2_28  and  O2_69 
REMARK   23 I    between atoms: C4_33  and  O4_61 
REMARK   24 I    between atoms: O2S_34  and  S1_45 
REMARK   25 I    between atoms: C6_37  and  C5_47 
REMARK   26 I    between atoms: O2_38  and  C2_77 
REMARK   27 I    between atoms: O2_38  and  S_50 
REMARK   28 I    between atoms: O3S_40  and  S1_53 
REMARK   29 I    between atoms: O1S_42  and  S1_45 
REMARK   30 I    between atoms: O1S_43  and  S1_53 
REMARK   31 I    between atoms: O4_44  and  C1_46 
REMARK   32 I    between atoms: S1_45  and  O3S_60 
REMARK   33 I    between atoms: C6_48  and  C5_84 
REMARK   34 I    between atoms: C6_51  and  C5_87 
REMARK   35 I    between atoms: S1_53  and  O2S_55 
REMARK   36 I    between atoms: C1_56  and  O4_74 
REMARK   37 I    between atoms: O6_57  and  S2_82 
REMARK   38 I    between atoms: O4_61  and  C1_70 
REMARK   39 I    between atoms: C3_63  and  O3_79 
REMARK   40 I    between atoms: O2_69  and  S_76 
ROOT
ATOM      1  C3  IDS d 504     -16.774  48.568 174.758  0.00  0.00     0.185 C 
ATOM      2  C4  IDS d 504     -16.292  48.185 173.367  0.00  0.00     0.195 C 
ATOM      3  C1  IDS d 504     -16.417  51.020 174.072  0.00  0.00     0.294 C 
ATOM      4  O5  IDS d 504     -15.958  50.505 172.818  0.00  0.00    -0.340 OA
ATOM      5  C2  IDS d 504     -16.263  49.998 175.181  0.00  0.00     0.231 C 
ATOM      6  C5  IDS d 504     -16.609  49.326 172.402  0.00  0.00     0.257 C 
ENDROOT
BRANCH   2   7
ATOM      7  O4  IDS d 504     -14.892  47.951 173.403  0.00  0.00    -0.348 OA
BRANCH   7   8
ATOM      8  C1  SGN d 505     -14.547  46.624 173.696  0.00  0.00     0.282 C 
ATOM      9  O5  SGN d 505     -14.566  45.847 172.532  0.00  0.00    -0.349 OA
ATOM     10  C5  SGN d 505     -13.613  46.227 171.587  0.00  0.00     0.181 C 
ATOM     11  C4  SGN d 505     -12.235  46.008 172.120  0.00  0.00     0.186 C 
ATOM     12  C3  SGN d 505     -12.077  46.953 173.347  0.00  0.00     0.173 C 
ATOM     13  C2  SGN d 505     -13.178  46.533 174.340  0.00  0.00     0.157 C 
BRANCH  10  14
ATOM     14  C6  SGN d 505     -13.895  45.422 170.360  0.00  0.00     0.227 C 
BRANCH  14  15
ATOM     15  O6  SGN d 505     -14.564  44.295 170.812  0.00  0.00    -0.254 OA
BRANCH  15  16
ATOM     16  S2  SGN d 505     -14.024  42.875 170.897  0.00  0.00     0.251 S 
ATOM     17  O5S SGN d 505     -14.935  42.092 170.101  0.00  0.00    -0.572 OA
ATOM     18  O4S SGN d 505     -14.039  42.561 172.308  0.00  0.00    -0.572 OA
ATOM     19  O6S SGN d 505     -12.677  42.900 170.341  0.00  0.00    -0.572 OA
ENDBRANCH  15  16
ENDBRANCH  14  15
ENDBRANCH  10  14
BRANCH  11  20
ATOM     20  O4  SGN d 505     -11.360  46.260 171.041  0.00  0.00    -0.348 OA
BRANCH  20  21
ATOM     21  C1  IDS d 506     -10.041  45.832 171.007  0.00  0.00     0.294 C 
ATOM     22  C2  IDS d 506      -9.214  46.835 170.190  0.00  0.00     0.231 C 
ATOM     23  C3  IDS d 506      -7.810  46.299 169.797  0.00  0.00     0.185 C 
ATOM     24  C4  IDS d 506      -7.796  44.798 169.438  0.00  0.00     0.189 C 
ATOM     25  C5  IDS d 506      -8.738  44.012 170.357  0.00  0.00     0.256 C 
ATOM     26  O5  IDS d 506     -10.002  44.589 170.352  0.00  0.00    -0.340 OA
BRANCH  22  27
ATOM     27  O2  IDS d 506      -9.884  47.151 168.985  0.00  0.00    -0.244 OA
BRANCH  27  28
ATOM     28  S   IDS d 506     -10.144  48.584 168.350  0.00  0.00     0.252 S 
ATOM     29  O1S IDS d 506      -8.894  49.271 168.456  0.00  0.00    -0.572 OA
ATOM     30  O2S IDS d 506     -10.519  48.403 166.976  0.00  0.00    -0.572 OA
ATOM     31  O3S IDS d 506     -11.191  49.179 169.154  0.00  0.00    -0.572 OA
ENDBRANCH  27  28
ENDBRANCH  22  27
BRANCH  23  32
ATOM     32  O3  IDS d 506      -6.922  46.512 170.891  0.00  0.00    -0.390 OA
ATOM     33  H   IDS d 506      -6.006  46.503 170.571  0.00  0.00     0.210 HD
ENDBRANCH  23  32
BRANCH  24  34
ATOM     34  O4  IDS d 506      -8.229  44.683 168.103  0.00  0.00    -0.390 OA
ATOM     35  H   IDS d 506      -7.528  44.991 167.508  0.00  0.00     0.210 HD
ENDBRANCH  24  34
BRANCH  25  36
ATOM     36  C6  IDS d 506      -8.863  42.524 170.089  0.00  0.00     0.206 C 
ATOM     37  O62 IDS d 506      -8.535  41.688 170.913  0.00  0.00    -0.646 OA
ATOM     38  O61 IDS d 506      -9.319  42.131 169.024  0.00  0.00    -0.646 OA
ENDBRANCH  25  36
ENDBRANCH  20  21
ENDBRANCH  11  20
BRANCH  12  39
ATOM     39  O3  SGN d 505     -10.812  46.760 173.966  0.00  0.00    -0.391 OA
ATOM     40  H   SGN d 505     -10.109  46.868 173.307  0.00  0.00     0.210 HD
ENDBRANCH  12  39
BRANCH  13  41
ATOM     41  N   SGN d 505     -13.191  47.275 175.623  0.00  0.00    -0.210 NA
ATOM     42  H   SGN d 505     -14.007  47.886 175.615  0.00  0.00     0.140 HD
BRANCH  41  43
ATOM     43  S1  SGN d 505     -13.251  46.375 177.036  0.00  0.00     0.156 S 
BRANCH  43  44
ATOM     44  O3S SGN d 505     -13.292  47.299 178.113  0.00  0.00    -0.296 OA
ATOM     45  H   SGN d 505     -12.535  47.903 178.049  0.00  0.00     0.231 HD
ENDBRANCH  43  44
BRANCH  43  46
ATOM     46  O1S SGN d 505     -14.428  45.534 176.969  0.00  0.00    -0.296 OA
ATOM     47  H   SGN d 505     -15.016  45.857 176.270  0.00  0.00     0.231 HD
ENDBRANCH  43  46
BRANCH  43  48
ATOM     48  O2S SGN d 505     -12.026  45.611 177.044  0.00  0.00    -0.296 OA
ATOM     49  H   SGN d 505     -11.359  46.064 176.504  0.00  0.00     0.231 HD
ENDBRANCH  43  48
ENDBRANCH  41  43
ENDBRANCH  13  41
ENDBRANCH   7   8
ENDBRANCH   2   7
BRANCH   1  50
ATOM     50  O3  IDS d 504     -18.196  48.560 174.724  0.00  0.00    -0.390 OA
ATOM     51  H   IDS d 504     -18.541  48.631 175.628  0.00  0.00     0.210 HD
ENDBRANCH   1  50
BRANCH   6  52
ATOM     52  C6  IDS d 504     -16.301  49.035 170.924  0.00  0.00     0.206 C 
ATOM     53  O62 IDS d 504     -16.914  48.162 170.305  0.00  0.00    -0.646 OA
ATOM     54  O61 IDS d 504     -15.425  49.651 170.330  0.00  0.00    -0.646 OA
ENDBRANCH   6  52
BRANCH   5  55
ATOM     55  O2  IDS d 504     -14.887  49.946 175.554  0.00  0.00    -0.244 OA
BRANCH  55  56
ATOM     56  S   IDS d 504     -14.267  50.476 176.860  0.00  0.00     0.252 S 
ATOM     57  O2S IDS d 504     -14.379  51.905 176.845  0.00  0.00    -0.572 OA
ATOM     58  O3S IDS d 504     -15.017  49.830 177.871  0.00  0.00    -0.572 OA
ATOM     59  O1S IDS d 504     -12.913  50.058 176.858  0.00  0.00    -0.572 OA
ENDBRANCH  55  56
ENDBRANCH   5  55
BRANCH   3  60
ATOM     60  O4  SGN d 503     -17.755  51.423 174.029  0.00  0.00    -0.348 OA
BRANCH  60  61
ATOM     61  C4  SGN d 503     -18.008  52.452 173.129  0.00  0.00     0.186 C 
ATOM     62  C5  SGN d 503     -17.777  53.797 173.840  0.00  0.00     0.181 C 
ATOM     63  O5  SGN d 503     -18.118  54.866 173.013  0.00  0.00    -0.349 OA
ATOM     64  C1  SGN d 503     -19.474  54.871 172.639  0.00  0.00     0.282 C 
ATOM     65  C2  SGN d 503     -19.796  53.587 171.861  0.00  0.00     0.157 C 
ATOM     66  C3  SGN d 503     -19.458  52.345 172.665  0.00  0.00     0.173 C 
BRANCH  62  67
ATOM     67  C6  SGN d 503     -16.346  54.059 174.227  0.00  0.00     0.227 C 
BRANCH  67  68
ATOM     68  O6  SGN d 503     -16.340  55.153 175.119  0.00  0.00    -0.254 OA
BRANCH  68  69
ATOM     69  S2  SGN d 503     -15.079  55.917 175.602  0.00  0.00     0.251 S 
ATOM     70  O6S SGN d 503     -14.032  55.347 174.847  0.00  0.00    -0.572 OA
ATOM     71  O4S SGN d 503     -15.233  57.291 175.266  0.00  0.00    -0.572 OA
ATOM     72  O5S SGN d 503     -14.984  55.715 177.045  0.00  0.00    -0.572 OA
ENDBRANCH  68  69
ENDBRANCH  67  68
ENDBRANCH  62  67
BRANCH  64  73
ATOM     73  O4  IDS d 502     -20.313  55.004 173.754  0.00  0.00    -0.348 OA
BRANCH  73  74
ATOM     74  C4  IDS d 502     -20.721  56.320 174.028  0.00  0.00     0.195 C 
ATOM     75  C3  IDS d 502     -22.114  56.566 173.418  0.00  0.00     0.185 C 
ATOM     76  C2  IDS d 502     -23.190  55.777 174.170  0.00  0.00     0.231 C 
ATOM     77  C1  IDS d 502     -23.072  55.952 175.680  0.00  0.00     0.291 C 
ATOM     78  O5  IDS d 502     -21.761  55.704 176.123  0.00  0.00    -0.340 OA
ATOM     79  C5  IDS d 502     -20.773  56.530 175.540  0.00  0.00     0.257 C 
BRANCH  75  80
ATOM     80  O3  IDS d 502     -22.425  57.942 173.525  0.00  0.00    -0.390 OA
ATOM     81  H   IDS d 502     -23.043  58.189 172.820  0.00  0.00     0.210 HD
ENDBRANCH  75  80
BRANCH  76  82
ATOM     82  O2  IDS d 502     -22.994  54.420 173.872  0.00  0.00    -0.244 OA
BRANCH  82  83
ATOM     83  S   IDS d 502     -24.015  53.424 173.229  0.00  0.00     0.252 S 
ATOM     84  O3S IDS d 502     -24.395  54.040 171.984  0.00  0.00    -0.572 OA
ATOM     85  O2S IDS d 502     -25.100  53.305 174.176  0.00  0.00    -0.572 OA
ATOM     86  O1S IDS d 502     -23.327  52.179 173.028  0.00  0.00    -0.572 OA
ENDBRANCH  82  83
ENDBRANCH  76  82
BRANCH  77  87
ATOM     87  O1  IDS d 502     -23.515  57.244 176.001  0.00  0.00    -0.368 OA
ATOM     88  H   IDS d 502     -23.126  57.518 176.846  0.00  0.00     0.212 HD
ENDBRANCH  77  87
BRANCH  79  89
ATOM     89  C6  IDS d 502     -19.435  56.346 176.242  0.00  0.00     0.206 C 
ATOM     90  O61 IDS d 502     -18.655  57.261 176.353  0.00  0.00    -0.646 OA
ATOM     91  O62 IDS d 502     -19.119  55.272 176.715  0.00  0.00    -0.646 OA
ENDBRANCH  79  89
ENDBRANCH  73  74
ENDBRANCH  64  73
BRANCH  65  92
ATOM     92  N   SGN d 503     -21.185  53.583 171.439  0.00  0.00    -0.210 NA
ATOM     93  H   SGN d 503     -21.606  54.453 171.766  0.00  0.00     0.140 HD
BRANCH  92  94
ATOM     94  S1  SGN d 503     -21.488  53.466 169.844  0.00  0.00     0.156 S 
BRANCH  94  95
ATOM     95  O2S SGN d 503     -22.838  53.972 169.597  0.00  0.00    -0.296 OA
ATOM     96  H   SGN d 503     -23.488  53.325 169.915  0.00  0.00     0.231 HD
ENDBRANCH  94  95
BRANCH  94  97
ATOM     97  O1S SGN d 503     -21.364  52.060 169.511  0.00  0.00    -0.296 OA
ATOM     98  H   SGN d 503     -22.239  51.701 169.292  0.00  0.00     0.231 HD
ENDBRANCH  94  97
BRANCH  94  99
ATOM     99  O3S SGN d 503     -20.445  54.270 169.249  0.00  0.00    -0.296 OA
ATOM    100  H   SGN d 503     -19.579  53.924 169.515  0.00  0.00     0.231 HD
ENDBRANCH  94  99
ENDBRANCH  92  94
ENDBRANCH  65  92
BRANCH  66 101
ATOM    101  O3  SGN d 503     -19.575  51.196 171.848  0.00  0.00    -0.391 OA
ATOM    102  H   SGN d 503     -20.059  50.506 172.328  0.00  0.00     0.210 HD
ENDBRANCH  66 101
ENDBRANCH  60  61
ENDBRANCH   3  60
TORSDOF 40
ENDMDL
MODEL 86
REMARK VINA RESULT:      -1.6      2.565     12.871
REMARK WARNING: 32 MAX_TORS EXCEEDED!!!
REMARK  40 active torsions:
REMARK  status: ('A' for Active; 'I' for Inactive)
REMARK    1 I    between atoms: C6_1  and  C5_8 
REMARK    2 I    between atoms: C6_1  and  O6_57 
REMARK    3 I    between atoms: O4_2  and  C4_49 
REMARK    4 I    between atoms: O6_3  and  C6_7 
REMARK    5 I    between atoms: O6_3  and  S2_58 
REMARK    6 I    between atoms: S_4  and  O2_6 
REMARK    7 I    between atoms: O3_5  and  C3_81 
REMARK    8 I    between atoms: O2_6  and  C2_11 
REMARK    9 I    between atoms: C6_7  and  C5_54 
REMARK   10 I    between atoms: O4_9  and  C4_32 
REMARK   11 I    between atoms: O4_9  and  C1_39 
REMARK   12 I    between atoms: O3_12  and  C3_18 
REMARK   13 I    between atoms: N_13  and  C2_52 
REMARK   14 I    between atoms: N_13  and  S1_45 
REMARK   15 I    between atoms: O3_17  and  C3_83 
REMARK   16 I    between atoms: C4_20  and  O4_44 
REMARK   17 I    between atoms: N_21  and  C2_66 
REMARK   18 I    between atoms: N_21  and  S1_53 
REMARK   19 I    between atoms: O3_22  and  C3_65 
REMARK   20 I    between atoms: C4_23  and  O4_74 
REMARK   21 I    between atoms: C1_25  and  O1_72 
REMARK   22 I    between atoms: C2_28  and  O2_69 
REMARK   23 I    between atoms: C4_33  and  O4_61 
REMARK   24 I    between atoms: O2S_34  and  S1_45 
REMARK   25 I    between atoms: C6_37  and  C5_47 
REMARK   26 I    between atoms: O2_38  and  C2_77 
REMARK   27 I    between atoms: O2_38  and  S_50 
REMARK   28 I    between atoms: O3S_40  and  S1_53 
REMARK   29 I    between atoms: O1S_42  and  S1_45 
REMARK   30 I    between atoms: O1S_43  and  S1_53 
REMARK   31 I    between atoms: O4_44  and  C1_46 
REMARK   32 I    between atoms: S1_45  and  O3S_60 
REMARK   33 I    between atoms: C6_48  and  C5_84 
REMARK   34 I    between atoms: C6_51  and  C5_87 
REMARK   35 I    between atoms: S1_53  and  O2S_55 
REMARK   36 I    between atoms: C1_56  and  O4_74 
REMARK   37 I    between atoms: O6_57  and  S2_82 
REMARK   38 I    between atoms: O4_61  and  C1_70 
REMARK   39 I    between atoms: C3_63  and  O3_79 
REMARK   40 I    between atoms: O2_69  and  S_76 
ROOT
ATOM      1  C3  IDS d 504     -15.376  47.859 175.581  0.00  0.00     0.185 C 
ATOM      2  C4  IDS d 504     -15.317  49.378 175.548  0.00  0.00     0.195 C 
ATOM      3  C1  IDS d 504     -14.605  47.899 173.129  0.00  0.00     0.294 C 
ATOM      4  O5  IDS d 504     -14.626  49.325 173.242  0.00  0.00    -0.340 OA
ATOM      5  C2  IDS d 504     -15.531  47.247 174.136  0.00  0.00     0.231 C 
ATOM      6  C5  IDS d 504     -14.276  49.811 174.518  0.00  0.00     0.257 C 
ENDROOT
BRANCH   2   7
ATOM      7  O4  IDS d 504     -16.595  49.889 175.195  0.00  0.00    -0.348 OA
BRANCH   7   8
ATOM      8  C1  SGN d 505     -17.409  50.189 176.296  0.00  0.00     0.282 C 
ATOM      9  O5  SGN d 505     -17.131  51.475 176.773  0.00  0.00    -0.349 OA
ATOM     10  C5  SGN d 505     -17.433  52.488 175.863  0.00  0.00     0.181 C 
ATOM     11  C4  SGN d 505     -18.904  52.532 175.602  0.00  0.00     0.186 C 
ATOM     12  C3  SGN d 505     -19.276  51.178 174.931  0.00  0.00     0.173 C 
ATOM     13  C2  SGN d 505     -18.881  50.087 175.945  0.00  0.00     0.157 C 
BRANCH  10  14
ATOM     14  C6  SGN d 505     -16.913  53.755 176.460  0.00  0.00     0.227 C 
BRANCH  14  15
ATOM     15  O6  SGN d 505     -16.053  54.279 175.507  0.00  0.00    -0.254 OA
BRANCH  15  16
ATOM     16  S2  SGN d 505     -15.273  55.584 175.587  0.00  0.00     0.251 S 
ATOM     17  O5S SGN d 505     -16.194  56.586 175.111  0.00  0.00    -0.572 OA
ATOM     18  O4S SGN d 505     -14.121  55.376 174.738  0.00  0.00    -0.572 OA
ATOM     19  O6S SGN d 505     -14.913  55.777 176.985  0.00  0.00    -0.572 OA
ENDBRANCH  15  16
ENDBRANCH  14  15
ENDBRANCH  10  14
BRANCH  11  20
ATOM     20  O4  SGN d 505     -19.120  53.683 174.813  0.00  0.00    -0.348 OA
BRANCH  20  21
ATOM     21  C1  IDS d 506     -20.371  54.241 174.599  0.00  0.00     0.294 C 
ATOM     22  C2  IDS d 506     -20.392  54.897 173.210  0.00  0.00     0.231 C 
ATOM     23  C3  IDS d 506     -21.608  55.839 172.993  0.00  0.00     0.185 C 
ATOM     24  C4  IDS d 506     -21.999  56.649 174.247  0.00  0.00     0.189 C 
ATOM     25  C5  IDS d 506     -21.847  55.798 175.512  0.00  0.00     0.256 C 
ATOM     26  O5  IDS d 506     -20.574  55.243 175.564  0.00  0.00    -0.340 OA
BRANCH  22  27
ATOM     27  O2  IDS d 506     -19.229  55.681 173.025  0.00  0.00    -0.244 OA
BRANCH  27  28
ATOM     28  S   IDS d 506     -18.327  55.812 171.723  0.00  0.00     0.252 S 
ATOM     29  O1S IDS d 506     -17.170  55.014 171.990  0.00  0.00    -0.572 OA
ATOM     30  O2S IDS d 506     -19.070  55.288 170.612  0.00  0.00    -0.572 OA
ATOM     31  O3S IDS d 506     -18.031  57.222 171.598  0.00  0.00    -0.572 OA
ENDBRANCH  27  28
ENDBRANCH  22  27
BRANCH  23  32
ATOM     32  O3  IDS d 506     -22.727  55.049 172.597  0.00  0.00    -0.390 OA
ATOM     33  H   IDS d 506     -23.159  54.683 173.385  0.00  0.00     0.210 HD
ENDBRANCH  23  32
BRANCH  24  34
ATOM     34  O4  IDS d 506     -21.134  57.759 174.314  0.00  0.00    -0.390 OA
ATOM     35  H   IDS d 506     -20.958  58.086 173.418  0.00  0.00     0.210 HD
ENDBRANCH  24  34
BRANCH  25  36
ATOM     36  C6  IDS d 506     -22.151  56.482 176.831  0.00  0.00     0.206 C 
ATOM     37  O62 IDS d 506     -23.119  56.179 177.508  0.00  0.00    -0.646 OA
ATOM     38  O61 IDS d 506     -21.407  57.357 177.253  0.00  0.00    -0.646 OA
ENDBRANCH  25  36
ENDBRANCH  20  21
ENDBRANCH  11  20
BRANCH  12  39
ATOM     39  O3  SGN d 505     -20.678  51.100 174.709  0.00  0.00    -0.391 OA
ATOM     40  H   SGN d 505     -21.069  51.985 174.792  0.00  0.00     0.210 HD
ENDBRANCH  12  39
BRANCH  13  41
ATOM     41  N   SGN d 505     -19.191  48.698 175.536  0.00  0.00    -0.210 NA
ATOM     42  H   SGN d 505     -18.358  48.317 175.089  0.00  0.00     0.140 HD
BRANCH  41  43
ATOM     43  S1  SGN d 505     -19.654  47.623 176.736  0.00  0.00     0.156 S 
BRANCH  43  44
ATOM     44  O3S SGN d 505     -20.285  48.385 177.754  0.00  0.00    -0.296 OA
ATOM     45  H   SGN d 505     -21.159  48.010 177.944  0.00  0.00     0.231 HD
ENDBRANCH  43  44
BRANCH  43  46
ATOM     46  O1S SGN d 505     -20.535  46.646 176.132  0.00  0.00    -0.296 OA
ATOM     47  H   SGN d 505     -20.505  46.736 175.167  0.00  0.00     0.231 HD
ENDBRANCH  43  46
BRANCH  43  48
ATOM     48  O2S SGN d 505     -18.420  47.037 177.206  0.00  0.00    -0.296 OA
ATOM     49  H   SGN d 505     -18.589  46.537 178.019  0.00  0.00     0.231 HD
ENDBRANCH  43  48
ENDBRANCH  41  43
ENDBRANCH  13  41
ENDBRANCH   7   8
ENDBRANCH   2   7
BRANCH   1  50
ATOM     50  O3  IDS d 504     -14.159  47.407 176.162  0.00  0.00    -0.390 OA
ATOM     51  H   IDS d 504     -14.355  46.784 176.880  0.00  0.00     0.210 HD
ENDBRANCH   1  50
BRANCH   6  52
ATOM     52  C6  IDS d 504     -14.004  51.324 174.461  0.00  0.00     0.206 C 
ATOM     53  O62 IDS d 504     -13.649  51.946 175.465  0.00  0.00    -0.646 OA
ATOM     54  O61 IDS d 504     -14.152  51.951 173.420  0.00  0.00    -0.646 OA
ENDBRANCH   6  52
BRANCH   5  55
ATOM     55  O2  IDS d 504     -16.872  47.397 173.673  0.00  0.00    -0.244 OA
BRANCH  55  56
ATOM     56  S   IDS d 504     -17.777  46.289 173.104  0.00  0.00     0.252 S 
ATOM     57  O2S IDS d 504     -17.393  45.054 173.722  0.00  0.00    -0.572 OA
ATOM     58  O3S IDS d 504     -19.084  46.731 173.420  0.00  0.00    -0.572 OA
ATOM     59  O1S IDS d 504     -17.550  46.266 171.705  0.00  0.00    -0.572 OA
ENDBRANCH  55  56
ENDBRANCH   5  55
BRANCH   3  60
ATOM     60  O4  SGN d 503     -13.323  47.367 173.303  0.00  0.00    -0.348 OA
BRANCH  60  61
ATOM     61  C4  SGN d 503     -12.458  47.614 172.243  0.00  0.00     0.186 C 
ATOM     62  C5  SGN d 503     -12.445  46.384 171.319  0.00  0.00     0.181 C 
ATOM     63  O5  SGN d 503     -11.512  46.537 170.295  0.00  0.00    -0.349 OA
ATOM     64  C1  SGN d 503     -10.191  46.669 170.758  0.00  0.00     0.282 C 
ATOM     65  C2  SGN d 503     -10.082  47.916 171.647  0.00  0.00     0.157 C 
ATOM     66  C3  SGN d 503     -11.061  47.866 172.805  0.00  0.00     0.173 C 
BRANCH  62  67
ATOM     67  C6  SGN d 503     -13.746  46.123 170.611  0.00  0.00     0.227 C 
BRANCH  67  68
ATOM     68  O6  SGN d 503     -13.705  46.809 169.379  0.00  0.00    -0.254 OA
BRANCH  68  69
ATOM     69  S2  SGN d 503     -14.525  48.077 169.024  0.00  0.00     0.251 S 
ATOM     70  O6S SGN d 503     -15.848  47.729 169.370  0.00  0.00    -0.572 OA
ATOM     71  O4S SGN d 503     -14.071  49.148 169.844  0.00  0.00    -0.572 OA
ATOM     72  O5S SGN d 503     -14.307  48.345 167.606  0.00  0.00    -0.572 OA
ENDBRANCH  68  69
ENDBRANCH  67  68
ENDBRANCH  62  67
BRANCH  64  73
ATOM     73  O4  IDS d 502      -9.773  45.524 171.448  0.00  0.00    -0.348 OA
BRANCH  73  74
ATOM     74  C4  IDS d 502      -9.018  44.619 170.683  0.00  0.00     0.195 C 
ATOM     75  C3  IDS d 502      -7.520  44.809 170.987  0.00  0.00     0.185 C 
ATOM     76  C2  IDS d 502      -7.182  44.329 172.402  0.00  0.00     0.231 C 
ATOM     77  C1  IDS d 502      -7.760  42.947 172.687  0.00  0.00     0.291 C 
ATOM     78  O5  IDS d 502      -9.129  42.890 172.370  0.00  0.00    -0.340 OA
ATOM     79  C5  IDS d 502      -9.439  43.191 171.024  0.00  0.00     0.257 C 
BRANCH  75  80
ATOM     80  O3  IDS d 502      -6.764  44.041 170.072  0.00  0.00    -0.390 OA
ATOM     81  H   IDS d 502      -5.986  44.547 169.791  0.00  0.00     0.210 HD
ENDBRANCH  75  80
BRANCH  76  82
ATOM     82  O2  IDS d 502      -7.764  45.237 173.300  0.00  0.00    -0.244 OA
BRANCH  82  83
ATOM     83  S   IDS d 502      -7.152  45.798 174.625  0.00  0.00     0.252 S 
ATOM     84  O3S IDS d 502      -7.567  44.868 175.644  0.00  0.00    -0.572 OA
ATOM     85  O2S IDS d 502      -7.705  47.123 174.785  0.00  0.00    -0.572 OA
ATOM     86  O1S IDS d 502      -5.725  45.818 174.461  0.00  0.00    -0.572 OA
ENDBRANCH  82  83
ENDBRANCH  76  82
BRANCH  77  87
ATOM     87  O1  IDS d 502      -7.002  42.007 171.973  0.00  0.00    -0.368 OA
ATOM     88  H   IDS d 502      -6.827  41.237 172.538  0.00  0.00     0.212 HD
ENDBRANCH  77  87
BRANCH  79  89
ATOM     89  C6  IDS d 502     -10.900  42.883 170.726  0.00  0.00     0.206 C 
ATOM     90  O61 IDS d 502     -11.634  42.444 171.578  0.00  0.00    -0.646 OA
ATOM     91  O62 IDS d 502     -11.367  43.076 169.621  0.00  0.00    -0.646 OA
ENDBRANCH  79  89
ENDBRANCH  73  74
ENDBRANCH  64  73
BRANCH  65  92
ATOM     92  N   SGN d 503      -8.718  48.089 172.114  0.00  0.00    -0.210 NA
ATOM     93  H   SGN d 503      -8.111  47.563 171.487  0.00  0.00     0.140 HD
BRANCH  92  94
ATOM     94  S1  SGN d 503      -8.136  49.607 172.195  0.00  0.00     0.156 S 
BRANCH  94  95
ATOM     95  O2S SGN d 503      -6.808  49.620 171.582  0.00  0.00    -0.296 OA
ATOM     96  H   SGN d 503      -6.645  50.489 171.183  0.00  0.00     0.231 HD
ENDBRANCH  94  95
BRANCH  94  97
ATOM     97  O1S SGN d 503      -8.088  49.948 173.604  0.00  0.00    -0.296 OA
ATOM     98  H   SGN d 503      -7.486  49.342 174.063  0.00  0.00     0.231 HD
ENDBRANCH  94  97
BRANCH  94  99
ATOM     99  O3S SGN d 503      -9.121  50.378 171.471  0.00  0.00    -0.296 OA
ATOM    100  H   SGN d 503      -8.772  51.265 171.296  0.00  0.00     0.231 HD
ENDBRANCH  94  99
ENDBRANCH  92  94
ENDBRANCH  65  92
BRANCH  66 101
ATOM    101  O3  SGN d 503     -11.075  49.109 173.479  0.00  0.00    -0.391 OA
ATOM    102  H   SGN d 503     -11.527  49.010 174.332  0.00  0.00     0.210 HD
ENDBRANCH  66 101
ENDBRANCH  60  61
ENDBRANCH   3  60
TORSDOF 40
ENDMDL
MODEL 87
REMARK VINA RESULT:      -1.6      2.386      4.050
REMARK WARNING: 32 MAX_TORS EXCEEDED!!!
REMARK  40 active torsions:
REMARK  status: ('A' for Active; 'I' for Inactive)
REMARK    1 I    between atoms: C6_1  and  C5_8 
REMARK    2 I    between atoms: C6_1  and  O6_57 
REMARK    3 I    between atoms: O4_2  and  C4_49 
REMARK    4 I    between atoms: O6_3  and  C6_7 
REMARK    5 I    between atoms: O6_3  and  S2_58 
REMARK    6 I    between atoms: S_4  and  O2_6 
REMARK    7 I    between atoms: O3_5  and  C3_81 
REMARK    8 I    between atoms: O2_6  and  C2_11 
REMARK    9 I    between atoms: C6_7  and  C5_54 
REMARK   10 I    between atoms: O4_9  and  C4_32 
REMARK   11 I    between atoms: O4_9  and  C1_39 
REMARK   12 I    between atoms: O3_12  and  C3_18 
REMARK   13 I    between atoms: N_13  and  C2_52 
REMARK   14 I    between atoms: N_13  and  S1_45 
REMARK   15 I    between atoms: O3_17  and  C3_83 
REMARK   16 I    between atoms: C4_20  and  O4_44 
REMARK   17 I    between atoms: N_21  and  C2_66 
REMARK   18 I    between atoms: N_21  and  S1_53 
REMARK   19 I    between atoms: O3_22  and  C3_65 
REMARK   20 I    between atoms: C4_23  and  O4_74 
REMARK   21 I    between atoms: C1_25  and  O1_72 
REMARK   22 I    between atoms: C2_28  and  O2_69 
REMARK   23 I    between atoms: C4_33  and  O4_61 
REMARK   24 I    between atoms: O2S_34  and  S1_45 
REMARK   25 I    between atoms: C6_37  and  C5_47 
REMARK   26 I    between atoms: O2_38  and  C2_77 
REMARK   27 I    between atoms: O2_38  and  S_50 
REMARK   28 I    between atoms: O3S_40  and  S1_53 
REMARK   29 I    between atoms: O1S_42  and  S1_45 
REMARK   30 I    between atoms: O1S_43  and  S1_53 
REMARK   31 I    between atoms: O4_44  and  C1_46 
REMARK   32 I    between atoms: S1_45  and  O3S_60 
REMARK   33 I    between atoms: C6_48  and  C5_84 
REMARK   34 I    between atoms: C6_51  and  C5_87 
REMARK   35 I    between atoms: S1_53  and  O2S_55 
REMARK   36 I    between atoms: C1_56  and  O4_74 
REMARK   37 I    between atoms: O6_57  and  S2_82 
REMARK   38 I    between atoms: O4_61  and  C1_70 
REMARK   39 I    between atoms: C3_63  and  O3_79 
REMARK   40 I    between atoms: O2_69  and  S_76 
ROOT
ATOM      1  C3  IDS d 504     -15.551  47.867 175.410  0.00  0.00     0.185 C 
ATOM      2  C4  IDS d 504     -14.785  48.305 174.171  0.00  0.00     0.195 C 
ATOM      3  C1  IDS d 504     -16.296  50.315 175.663  0.00  0.00     0.294 C 
ATOM      4  O5  IDS d 504     -15.505  50.578 174.499  0.00  0.00    -0.340 OA
ATOM      5  C2  IDS d 504     -15.818  49.074 176.390  0.00  0.00     0.231 C 
ATOM      6  C5  IDS d 504     -15.478  49.523 173.565  0.00  0.00     0.257 C 
ENDROOT
BRANCH   2   7
ATOM      7  O4  IDS d 504     -13.452  48.632 174.535  0.00  0.00    -0.348 OA
BRANCH   7   8
ATOM      8  C1  SGN d 505     -12.718  47.547 175.035  0.00  0.00     0.282 C 
ATOM      9  O5  SGN d 505     -12.645  46.526 174.080  0.00  0.00    -0.349 OA
ATOM     10  C5  SGN d 505     -11.946  46.885 172.927  0.00  0.00     0.181 C 
ATOM     11  C4  SGN d 505     -10.512  47.153 173.250  0.00  0.00     0.186 C 
ATOM     12  C3  SGN d 505     -10.494  48.381 174.206  0.00  0.00     0.173 C 
ATOM     13  C2  SGN d 505     -11.317  47.961 175.439  0.00  0.00     0.157 C 
BRANCH  10  14
ATOM     14  C6  SGN d 505     -12.122  45.757 171.963  0.00  0.00     0.227 C 
BRANCH  14  15
ATOM     15  O6  SGN d 505     -13.374  45.953 171.399  0.00  0.00    -0.254 OA
BRANCH  15  16
ATOM     16  S2  SGN d 505     -14.040  45.112 170.320  0.00  0.00     0.251 S 
ATOM     17  O5S SGN d 505     -13.387  43.830 170.406  0.00  0.00    -0.572 OA
ATOM     18  O4S SGN d 505     -13.792  45.830 169.089  0.00  0.00    -0.572 OA
ATOM     19  O6S SGN d 505     -15.456  45.041 170.653  0.00  0.00    -0.572 OA
ENDBRANCH  15  16
ENDBRANCH  14  15
ENDBRANCH  10  14
BRANCH  11  20
ATOM     20  O4  SGN d 505      -9.866  47.338 172.008  0.00  0.00    -0.348 OA
BRANCH  20  21
ATOM     21  C1  IDS d 506      -8.630  46.792 171.698  0.00  0.00     0.294 C 
ATOM     22  C2  IDS d 506      -8.080  47.487 170.444  0.00  0.00     0.231 C 
ATOM     23  C3  IDS d 506      -6.875  46.742 169.806  0.00  0.00     0.185 C 
ATOM     24  C4  IDS d 506      -6.996  45.205 169.860  0.00  0.00     0.189 C 
ATOM     25  C5  IDS d 506      -7.620  44.755 171.185  0.00  0.00     0.256 C 
ATOM     26  O5  IDS d 506      -8.814  45.431 171.404  0.00  0.00    -0.340 OA
BRANCH  22  27
ATOM     27  O2  IDS d 506      -9.085  47.565 169.451  0.00  0.00    -0.244 OA
BRANCH  27  28
ATOM     28  S   IDS d 506      -8.995  48.228 168.010  0.00  0.00     0.252 S 
ATOM     29  O1S IDS d 506     -10.250  48.890 167.826  0.00  0.00    -0.572 OA
ATOM     30  O2S IDS d 506      -7.911  49.169 168.018  0.00  0.00    -0.572 OA
ATOM     31  O3S IDS d 506      -8.790  47.129 167.091  0.00  0.00    -0.572 OA
ENDBRANCH  27  28
ENDBRANCH  22  27
BRANCH  23  32
ATOM     32  O3  IDS d 506      -5.689  47.128 170.496  0.00  0.00    -0.390 OA
ATOM     33  H   IDS d 506      -5.708  48.083 170.663  0.00  0.00     0.210 HD
ENDBRANCH  23  32
BRANCH  24  34
ATOM     34  O4  IDS d 506      -7.823  44.813 168.789  0.00  0.00    -0.390 OA
ATOM     35  H   IDS d 506      -8.308  45.584 168.456  0.00  0.00     0.210 HD
ENDBRANCH  24  34
BRANCH  25  36
ATOM     36  C6  IDS d 506      -7.845  43.265 171.359  0.00  0.00     0.206 C 
ATOM     37  O62 IDS d 506      -8.414  42.594 170.515  0.00  0.00    -0.646 OA
ATOM     38  O61 IDS d 506      -7.437  42.697 172.363  0.00  0.00    -0.646 OA
ENDBRANCH  25  36
ENDBRANCH  20  21
ENDBRANCH  11  20
BRANCH  12  39
ATOM     39  O3  SGN d 505      -9.166  48.667 174.626  0.00  0.00    -0.391 OA
ATOM     40  H   SGN d 505      -8.755  49.286 174.002  0.00  0.00     0.210 HD
ENDBRANCH  12  39
BRANCH  13  41
ATOM     41  N   SGN d 505     -11.398  48.970 176.521  0.00  0.00    -0.210 NA
ATOM     42  H   SGN d 505     -10.626  48.793 177.163  0.00  0.00     0.140 HD
BRANCH  41  43
ATOM     43  S1  SGN d 505     -11.322  50.585 176.080  0.00  0.00     0.156 S 
BRANCH  43  44
ATOM     44  O3S SGN d 505     -11.629  50.651 174.696  0.00  0.00    -0.296 OA
ATOM     45  H   SGN d 505     -11.417  49.802 174.277  0.00  0.00     0.231 HD
ENDBRANCH  43  44
BRANCH  43  46
ATOM     46  O1S SGN d 505     -12.267  51.309 176.904  0.00  0.00    -0.296 OA
ATOM     47  H   SGN d 505     -11.937  52.206 177.062  0.00  0.00     0.231 HD
ENDBRANCH  43  46
BRANCH  43  48
ATOM     48  O2S SGN d 505      -9.956  50.977 176.335  0.00  0.00    -0.296 OA
ATOM     49  H   SGN d 505      -9.916  51.502 177.150  0.00  0.00     0.231 HD
ENDBRANCH  43  48
ENDBRANCH  41  43
ENDBRANCH  13  41
ENDBRANCH   7   8
ENDBRANCH   2   7
BRANCH   1  50
ATOM     50  O3  IDS d 504     -16.791  47.330 174.966  0.00  0.00    -0.390 OA
ATOM     51  H   IDS d 504     -17.301  47.020 175.731  0.00  0.00     0.210 HD
ENDBRANCH   1  50
BRANCH   6  52
ATOM     52  C6  IDS d 504     -14.897  50.006 172.226  0.00  0.00     0.206 C 
ATOM     53  O62 IDS d 504     -15.028  51.176 171.859  0.00  0.00    -0.646 OA
ATOM     54  O61 IDS d 504     -14.304  49.235 171.482  0.00  0.00    -0.646 OA
ENDBRANCH   6  52
BRANCH   5  55
ATOM     55  O2  IDS d 504     -14.631  49.404 177.108  0.00  0.00    -0.244 OA
BRANCH  55  56
ATOM     56  S   IDS d 504     -14.398  49.248 178.622  0.00  0.00     0.252 S 
ATOM     57  O2S IDS d 504     -12.988  49.099 178.831  0.00  0.00    -0.572 OA
ATOM     58  O3S IDS d 504     -14.960  50.426 179.169  0.00  0.00    -0.572 OA
ATOM     59  O1S IDS d 504     -15.110  48.089 179.018  0.00  0.00    -0.572 OA
ENDBRANCH  55  56
ENDBRANCH   5  55
BRANCH   3  60
ATOM     60  O4  SGN d 503     -17.652  50.154 175.364  0.00  0.00    -0.348 OA
BRANCH  60  61
ATOM     61  C4  SGN d 503     -18.445  51.236 175.729  0.00  0.00     0.186 C 
ATOM     62  C5  SGN d 503     -19.903  50.760 175.854  0.00  0.00     0.181 C 
ATOM     63  O5  SGN d 503     -20.758  51.829 176.115  0.00  0.00    -0.349 OA
ATOM     64  C1  SGN d 503     -20.769  52.797 175.096  0.00  0.00     0.282 C 
ATOM     65  C2  SGN d 503     -19.360  53.386 174.933  0.00  0.00     0.157 C 
ATOM     66  C3  SGN d 503     -18.332  52.307 174.647  0.00  0.00     0.173 C 
BRANCH  62  67
ATOM     67  C6  SGN d 503     -20.148  49.794 176.981  0.00  0.00     0.227 C 
BRANCH  67  68
ATOM     68  O6  SGN d 503     -20.641  48.598 176.416  0.00  0.00    -0.254 OA
BRANCH  68  69
ATOM     69  S2  SGN d 503     -19.957  47.208 176.505  0.00  0.00     0.251 S 
ATOM     70  O6S SGN d 503     -20.928  46.396 177.128  0.00  0.00    -0.572 OA
ATOM     71  O4S SGN d 503     -19.709  46.746 175.182  0.00  0.00    -0.572 OA
ATOM     72  O5S SGN d 503     -18.721  47.387 177.261  0.00  0.00    -0.572 OA
ENDBRANCH  68  69
ENDBRANCH  67  68
ENDBRANCH  62  67
BRANCH  64  73
ATOM     73  O4  IDS d 502     -21.231  52.263 173.886  0.00  0.00    -0.348 OA
BRANCH  73  74
ATOM     74  C4  IDS d 502     -22.625  52.307 173.718  0.00  0.00     0.195 C 
ATOM     75  C3  IDS d 502     -23.008  53.552 172.897  0.00  0.00     0.185 C 
ATOM     76  C2  IDS d 502     -22.555  53.409 171.441  0.00  0.00     0.231 C 
ATOM     77  C1  IDS d 502     -22.955  52.061 170.851  0.00  0.00     0.291 C 
ATOM     78  O5  IDS d 502     -22.558  51.001 171.684  0.00  0.00    -0.340 OA
ATOM     79  C5  IDS d 502     -23.089  51.045 172.993  0.00  0.00     0.257 C 
BRANCH  75  80
ATOM     80  O3  IDS d 502     -24.415  53.694 172.906  0.00  0.00    -0.390 OA
ATOM     81  H   IDS d 502     -24.647  54.594 173.186  0.00  0.00     0.210 HD
ENDBRANCH  75  80
BRANCH  76  82
ATOM     82  O2  IDS d 502     -21.155  53.491 171.430  0.00  0.00    -0.244 OA
BRANCH  82  83
ATOM     83  S   IDS d 502     -20.264  54.573 170.734  0.00  0.00     0.252 S 
ATOM     84  O3S IDS d 502     -20.535  54.422 169.327  0.00  0.00    -0.572 OA
ATOM     85  O2S IDS d 502     -18.903  54.259 171.102  0.00  0.00    -0.572 OA
ATOM     86  O1S IDS d 502     -20.683  55.854 171.230  0.00  0.00    -0.572 OA
ENDBRANCH  82  83
ENDBRANCH  76  82
BRANCH  77  87
ATOM     87  O1  IDS d 502     -24.339  52.081 170.626  0.00  0.00    -0.368 OA
ATOM     88  H   IDS d 502     -24.715  51.215 170.847  0.00  0.00     0.212 HD
ENDBRANCH  77  87
BRANCH  79  89
ATOM     89  C6  IDS d 502     -22.792  49.752 173.739  0.00  0.00     0.206 C 
ATOM     90  O61 IDS d 502     -21.965  48.971 173.334  0.00  0.00    -0.646 OA
ATOM     91  O62 IDS d 502     -23.378  49.473 174.767  0.00  0.00    -0.646 OA
ENDBRANCH  79  89
ENDBRANCH  73  74
ENDBRANCH  64  73
BRANCH  65  92
ATOM     92  N   SGN d 503     -19.353  54.410 173.904  0.00  0.00    -0.210 NA
ATOM     93  H   SGN d 503     -20.306  54.497 173.553  0.00  0.00     0.140 HD
BRANCH  92  94
ATOM     94  S1  SGN d 503     -18.853  55.900 174.327  0.00  0.00     0.156 S 
BRANCH  94  95
ATOM     95  O2S SGN d 503     -18.420  56.597 173.117  0.00  0.00    -0.296 OA
ATOM     96  H   SGN d 503     -18.834  56.186 172.342  0.00  0.00     0.231 HD
ENDBRANCH  94  95
BRANCH  94  97
ATOM     97  O1S SGN d 503     -17.764  55.710 175.266  0.00  0.00    -0.296 OA
ATOM     98  H   SGN d 503     -16.954  55.488 174.780  0.00  0.00     0.231 HD
ENDBRANCH  94  97
BRANCH  94  99
ATOM     99  O3S SGN d 503     -20.023  56.478 174.947  0.00  0.00    -0.296 OA
ATOM    100  H   SGN d 503     -20.644  56.766 174.260  0.00  0.00     0.231 HD
ENDBRANCH  94  99
ENDBRANCH  92  94
ENDBRANCH  65  92
BRANCH  66 101
ATOM    101  O3  SGN d 503     -17.029  52.855 174.705  0.00  0.00    -0.391 OA
ATOM    102  H   SGN d 503     -16.610  52.606 175.543  0.00  0.00     0.210 HD
ENDBRANCH  66 101
ENDBRANCH  60  61
ENDBRANCH   3  60
TORSDOF 40
ENDMDL
MODEL 88
REMARK VINA RESULT:      -1.6      1.745      2.981
REMARK WARNING: 32 MAX_TORS EXCEEDED!!!
REMARK  40 active torsions:
REMARK  status: ('A' for Active; 'I' for Inactive)
REMARK    1 I    between atoms: C6_1  and  C5_8 
REMARK    2 I    between atoms: C6_1  and  O6_57 
REMARK    3 I    between atoms: O4_2  and  C4_49 
REMARK    4 I    between atoms: O6_3  and  C6_7 
REMARK    5 I    between atoms: O6_3  and  S2_58 
REMARK    6 I    between atoms: S_4  and  O2_6 
REMARK    7 I    between atoms: O3_5  and  C3_81 
REMARK    8 I    between atoms: O2_6  and  C2_11 
REMARK    9 I    between atoms: C6_7  and  C5_54 
REMARK   10 I    between atoms: O4_9  and  C4_32 
REMARK   11 I    between atoms: O4_9  and  C1_39 
REMARK   12 I    between atoms: O3_12  and  C3_18 
REMARK   13 I    between atoms: N_13  and  C2_52 
REMARK   14 I    between atoms: N_13  and  S1_45 
REMARK   15 I    between atoms: O3_17  and  C3_83 
REMARK   16 I    between atoms: C4_20  and  O4_44 
REMARK   17 I    between atoms: N_21  and  C2_66 
REMARK   18 I    between atoms: N_21  and  S1_53 
REMARK   19 I    between atoms: O3_22  and  C3_65 
REMARK   20 I    between atoms: C4_23  and  O4_74 
REMARK   21 I    between atoms: C1_25  and  O1_72 
REMARK   22 I    between atoms: C2_28  and  O2_69 
REMARK   23 I    between atoms: C4_33  and  O4_61 
REMARK   24 I    between atoms: O2S_34  and  S1_45 
REMARK   25 I    between atoms: C6_37  and  C5_47 
REMARK   26 I    between atoms: O2_38  and  C2_77 
REMARK   27 I    between atoms: O2_38  and  S_50 
REMARK   28 I    between atoms: O3S_40  and  S1_53 
REMARK   29 I    between atoms: O1S_42  and  S1_45 
REMARK   30 I    between atoms: O1S_43  and  S1_53 
REMARK   31 I    between atoms: O4_44  and  C1_46 
REMARK   32 I    between atoms: S1_45  and  O3S_60 
REMARK   33 I    between atoms: C6_48  and  C5_84 
REMARK   34 I    between atoms: C6_51  and  C5_87 
REMARK   35 I    between atoms: S1_53  and  O2S_55 
REMARK   36 I    between atoms: C1_56  and  O4_74 
REMARK   37 I    between atoms: O6_57  and  S2_82 
REMARK   38 I    between atoms: O4_61  and  C1_70 
REMARK   39 I    between atoms: C3_63  and  O3_79 
REMARK   40 I    between atoms: O2_69  and  S_76 
ROOT
ATOM      1  C3  IDS d 504     -15.936  49.807 175.996  0.00  0.00     0.185 C 
ATOM      2  C4  IDS d 504     -16.074  48.923 174.765  0.00  0.00     0.195 C 
ATOM      3  C1  IDS d 504     -16.000  51.823 174.401  0.00  0.00     0.294 C 
ATOM      4  O5  IDS d 504     -16.096  50.865 173.343  0.00  0.00    -0.340 OA
ATOM      5  C2  IDS d 504     -15.350  51.226 175.634  0.00  0.00     0.231 C 
ATOM      6  C5  IDS d 504     -16.815  49.700 173.678  0.00  0.00     0.257 C 
ENDROOT
BRANCH   2   7
ATOM      7  O4  IDS d 504     -14.782  48.552 174.307  0.00  0.00    -0.348 OA
BRANCH   7   8
ATOM      8  C1  SGN d 505     -14.489  47.192 174.479  0.00  0.00     0.282 C 
ATOM      9  O5  SGN d 505     -14.514  46.528 173.247  0.00  0.00    -0.349 OA
ATOM     10  C5  SGN d 505     -13.531  46.960 172.356  0.00  0.00     0.181 C 
ATOM     11  C4  SGN d 505     -12.171  46.642 172.888  0.00  0.00     0.186 C 
ATOM     12  C3  SGN d 505     -12.003  47.462 174.200  0.00  0.00     0.173 C 
ATOM     13  C2  SGN d 505     -13.136  46.991 175.133  0.00  0.00     0.157 C 
BRANCH  10  14
ATOM     14  C6  SGN d 505     -13.818  46.284 171.055  0.00  0.00     0.227 C 
BRANCH  14  15
ATOM     15  O6  SGN d 505     -14.505  47.223 170.301  0.00  0.00    -0.254 OA
BRANCH  15  16
ATOM     16  S2  SGN d 505     -14.018  47.931 169.046  0.00  0.00     0.251 S 
ATOM     17  O5S SGN d 505     -13.377  46.897 168.272  0.00  0.00    -0.572 OA
ATOM     18  O4S SGN d 505     -13.125  48.961 169.527  0.00  0.00    -0.572 OA
ATOM     19  O6S SGN d 505     -15.196  48.474 168.382  0.00  0.00    -0.572 OA
ENDBRANCH  15  16
ENDBRANCH  14  15
ENDBRANCH  10  14
BRANCH  11  20
ATOM     20  O4  SGN d 505     -11.268  46.961 171.851  0.00  0.00    -0.348 OA
BRANCH  20  21
ATOM     21  C1  IDS d 506      -9.981  46.452 171.770  0.00  0.00     0.294 C 
ATOM     22  C2  IDS d 506      -9.199  47.239 170.709  0.00  0.00     0.231 C 
ATOM     23  C3  IDS d 506      -7.869  46.554 170.290  0.00  0.00     0.185 C 
ATOM     24  C4  IDS d 506      -7.961  45.015 170.212  0.00  0.00     0.189 C 
ATOM     25  C5  IDS d 506      -8.836  44.466 171.344  0.00  0.00     0.256 C 
ATOM     26  O5  IDS d 506     -10.066  45.112 171.353  0.00  0.00    -0.340 OA
BRANCH  22  27
ATOM     27  O2  IDS d 506      -9.977  47.378 169.536  0.00  0.00    -0.244 OA
BRANCH  27  28
ATOM     28  S   IDS d 506      -9.598  48.128 168.187  0.00  0.00     0.252 S 
ATOM     29  O1S IDS d 506      -8.828  47.183 167.440  0.00  0.00    -0.572 OA
ATOM     30  O2S IDS d 506     -10.816  48.458 167.503  0.00  0.00    -0.572 OA
ATOM     31  O3S IDS d 506      -8.837  49.291 168.592  0.00  0.00    -0.572 OA
ENDBRANCH  27  28
ENDBRANCH  22  27
BRANCH  23  32
ATOM     32  O3  IDS d 506      -6.863  46.901 171.237  0.00  0.00    -0.390 OA
ATOM     33  H   IDS d 506      -6.869  46.259 171.965  0.00  0.00     0.210 HD
ENDBRANCH  23  32
BRANCH  24  34
ATOM     34  O4  IDS d 506      -8.537  44.693 168.968  0.00  0.00    -0.390 OA
ATOM     35  H   IDS d 506      -8.506  43.732 168.836  0.00  0.00     0.210 HD
ENDBRANCH  24  34
BRANCH  25  36
ATOM     36  C6  IDS d 506      -9.055  42.965 171.366  0.00  0.00     0.206 C 
ATOM     37  O62 IDS d 506      -8.991  42.288 170.354  0.00  0.00    -0.646 OA
ATOM     38  O61 IDS d 506      -9.290  42.396 172.423  0.00  0.00    -0.646 OA
ENDBRANCH  25  36
ENDBRANCH  20  21
ENDBRANCH  11  20
BRANCH  12  39
ATOM     39  O3  SGN d 505     -10.758  47.166 174.818  0.00  0.00    -0.391 OA
ATOM     40  H   SGN d 505     -10.069  47.093 174.139  0.00  0.00     0.210 HD
ENDBRANCH  12  39
BRANCH  13  41
ATOM     41  N   SGN d 505     -13.147  47.610 176.479  0.00  0.00    -0.210 NA
ATOM     42  H   SGN d 505     -13.661  48.488 176.408  0.00  0.00     0.140 HD
BRANCH  41  43
ATOM     43  S1  SGN d 505     -13.831  46.729 177.730  0.00  0.00     0.156 S 
BRANCH  43  44
ATOM     44  O3S SGN d 505     -13.679  47.501 178.912  0.00  0.00    -0.296 OA
ATOM     45  H   SGN d 505     -13.017  48.194 178.762  0.00  0.00     0.231 HD
ENDBRANCH  43  44
BRANCH  43  46
ATOM     46  O1S SGN d 505     -15.217  46.485 177.388  0.00  0.00    -0.296 OA
ATOM     47  H   SGN d 505     -15.597  45.850 178.013  0.00  0.00     0.231 HD
ENDBRANCH  43  46
BRANCH  43  48
ATOM     48  O2S SGN d 505     -13.057  45.511 177.794  0.00  0.00    -0.296 OA
ATOM     49  H   SGN d 505     -13.191  44.999 176.982  0.00  0.00     0.231 HD
ENDBRANCH  43  48
ENDBRANCH  41  43
ENDBRANCH  13  41
ENDBRANCH   7   8
ENDBRANCH   2   7
BRANCH   1  50
ATOM     50  O3  IDS d 504     -17.237  49.956 176.551  0.00  0.00    -0.390 OA
ATOM     51  H   IDS d 504     -17.883  49.505 175.985  0.00  0.00     0.210 HD
ENDBRANCH   1  50
BRANCH   6  52
ATOM     52  C6  IDS d 504     -17.150  48.892 172.413  0.00  0.00     0.206 C 
ATOM     53  O62 IDS d 504     -16.954  49.358 171.289  0.00  0.00    -0.646 OA
ATOM     54  O61 IDS d 504     -17.638  47.772 172.493  0.00  0.00    -0.646 OA
ENDBRANCH   6  52
BRANCH   5  55
ATOM     55  O2  IDS d 504     -13.945  51.141 175.403  0.00  0.00    -0.244 OA
BRANCH  55  56
ATOM     56  S   IDS d 504     -12.828  51.403 176.429  0.00  0.00     0.252 S 
ATOM     57  O2S IDS d 504     -13.411  52.100 177.538  0.00  0.00    -0.572 OA
ATOM     58  O3S IDS d 504     -12.341  50.109 176.729  0.00  0.00    -0.572 OA
ATOM     59  O1S IDS d 504     -11.855  52.194 175.768  0.00  0.00    -0.572 OA
ENDBRANCH  55  56
ENDBRANCH   5  55
BRANCH   3  60
ATOM     60  O4  SGN d 503     -17.245  52.343 174.769  0.00  0.00    -0.348 OA
BRANCH  60  61
ATOM     61  C4  SGN d 503     -17.915  52.990 173.737  0.00  0.00     0.186 C 
ATOM     62  C5  SGN d 503     -17.650  54.502 173.848  0.00  0.00     0.181 C 
ATOM     63  O5  SGN d 503     -18.385  55.210 172.899  0.00  0.00    -0.349 OA
ATOM     64  C1  SGN d 503     -19.776  55.064 173.048  0.00  0.00     0.282 C 
ATOM     65  C2  SGN d 503     -20.157  53.585 172.890  0.00  0.00     0.157 C 
ATOM     66  C3  SGN d 503     -19.409  52.706 173.877  0.00  0.00     0.173 C 
BRANCH  62  67
ATOM     67  C6  SGN d 503     -16.222  54.903 173.597  0.00  0.00     0.227 C 
BRANCH  67  68
ATOM     68  O6  SGN d 503     -15.815  55.722 174.671  0.00  0.00    -0.254 OA
BRANCH  68  69
ATOM     69  S2  SGN d 503     -14.572  55.484 175.569  0.00  0.00     0.251 S 
ATOM     70  O6S SGN d 503     -15.088  54.780 176.677  0.00  0.00    -0.572 OA
ATOM     71  O4S SGN d 503     -13.654  54.665 174.853  0.00  0.00    -0.572 OA
ATOM     72  O5S SGN d 503     -14.009  56.795 175.876  0.00  0.00    -0.572 OA
ENDBRANCH  68  69
ENDBRANCH  67  68
ENDBRANCH  62  67
BRANCH  64  73
ATOM     73  O4  IDS d 502     -20.214  55.566 174.281  0.00  0.00    -0.348 OA
BRANCH  73  74
ATOM     74  C4  IDS d 502     -20.623  56.909 174.258  0.00  0.00     0.195 C 
ATOM     75  C3  IDS d 502     -22.155  56.981 174.107  0.00  0.00     0.185 C 
ATOM     76  C2  IDS d 502     -22.854  56.497 175.381  0.00  0.00     0.231 C 
ATOM     77  C1  IDS d 502     -22.266  57.142 176.633  0.00  0.00     0.291 C 
ATOM     78  O5  IDS d 502     -20.866  57.019 176.662  0.00  0.00    -0.340 OA
ATOM     79  C5  IDS d 502     -20.197  57.592 175.556  0.00  0.00     0.257 C 
BRANCH  75  80
ATOM     80  O3  IDS d 502     -22.532  58.325 173.884  0.00  0.00    -0.390 OA
ATOM     81  H   IDS d 502     -23.221  58.358 173.202  0.00  0.00     0.210 HD
ENDBRANCH  75  80
BRANCH  76  82
ATOM     82  O2  IDS d 502     -22.650  55.112 175.469  0.00  0.00    -0.244 OA
BRANCH  82  83
ATOM     83  S   IDS d 502     -23.722  54.000 175.713  0.00  0.00     0.252 S 
ATOM     84  O3S IDS d 502     -22.961  52.794 175.916  0.00  0.00    -0.572 OA
ATOM     85  O2S IDS d 502     -24.544  53.977 174.525  0.00  0.00    -0.572 OA
ATOM     86  O1S IDS d 502     -24.465  54.373 176.884  0.00  0.00    -0.572 OA
ENDBRANCH  82  83
ENDBRANCH  76  82
BRANCH  77  87
ATOM     87  O1  IDS d 502     -22.691  58.479 176.669  0.00  0.00    -0.368 OA
ATOM     88  H   IDS d 502     -22.028  59.016 177.132  0.00  0.00     0.212 HD
ENDBRANCH  77  87
BRANCH  79  89
ATOM     89  C6  IDS d 502     -18.693  57.610 175.787  0.00  0.00     0.206 C 
ATOM     90  O61 IDS d 502     -18.181  56.924 176.638  0.00  0.00    -0.646 OA
ATOM     91  O62 IDS d 502     -17.965  58.316 175.117  0.00  0.00    -0.646 OA
ENDBRANCH  79  89
ENDBRANCH  73  74
ENDBRANCH  64  73
BRANCH  65  92
ATOM     92  N   SGN d 503     -21.594  53.414 173.013  0.00  0.00    -0.210 NA
ATOM     93  H   SGN d 503     -21.993  54.329 173.222  0.00  0.00     0.140 HD
BRANCH  92  94
ATOM     94  S1  SGN d 503     -22.393  52.816 171.728  0.00  0.00     0.156 S 
BRANCH  94  95
ATOM     95  O2S SGN d 503     -22.117  53.675 170.578  0.00  0.00    -0.296 OA
ATOM     96  H   SGN d 503     -22.440  53.247 169.770  0.00  0.00     0.231 HD
ENDBRANCH  94  95
BRANCH  94  97
ATOM     97  O1S SGN d 503     -23.799  52.822 172.087  0.00  0.00    -0.296 OA
ATOM     98  H   SGN d 503     -24.271  53.463 171.534  0.00  0.00     0.231 HD
ENDBRANCH  94  97
BRANCH  94  99
ATOM     99  O3S SGN d 503     -21.860  51.478 171.600  0.00  0.00    -0.296 OA
ATOM    100  H   SGN d 503     -22.279  51.035 170.846  0.00  0.00     0.231 HD
ENDBRANCH  94  99
ENDBRANCH  92  94
ENDBRANCH  65  92
BRANCH  66 101
ATOM    101  O3  SGN d 503     -19.629  51.343 173.570  0.00  0.00    -0.391 OA
ATOM    102  H   SGN d 503     -20.262  51.274 172.839  0.00  0.00     0.210 HD
ENDBRANCH  66 101
ENDBRANCH  60  61
ENDBRANCH   3  60
TORSDOF 40
ENDMDL
MODEL 89
REMARK VINA RESULT:      -1.4      3.977     11.728
REMARK WARNING: 32 MAX_TORS EXCEEDED!!!
REMARK  40 active torsions:
REMARK  status: ('A' for Active; 'I' for Inactive)
REMARK    1 I    between atoms: C6_1  and  C5_8 
REMARK    2 I    between atoms: C6_1  and  O6_57 
REMARK    3 I    between atoms: O4_2  and  C4_49 
REMARK    4 I    between atoms: O6_3  and  C6_7 
REMARK    5 I    between atoms: O6_3  and  S2_58 
REMARK    6 I    between atoms: S_4  and  O2_6 
REMARK    7 I    between atoms: O3_5  and  C3_81 
REMARK    8 I    between atoms: O2_6  and  C2_11 
REMARK    9 I    between atoms: C6_7  and  C5_54 
REMARK   10 I    between atoms: O4_9  and  C4_32 
REMARK   11 I    between atoms: O4_9  and  C1_39 
REMARK   12 I    between atoms: O3_12  and  C3_18 
REMARK   13 I    between atoms: N_13  and  C2_52 
REMARK   14 I    between atoms: N_13  and  S1_45 
REMARK   15 I    between atoms: O3_17  and  C3_83 
REMARK   16 I    between atoms: C4_20  and  O4_44 
REMARK   17 I    between atoms: N_21  and  C2_66 
REMARK   18 I    between atoms: N_21  and  S1_53 
REMARK   19 I    between atoms: O3_22  and  C3_65 
REMARK   20 I    between atoms: C4_23  and  O4_74 
REMARK   21 I    between atoms: C1_25  and  O1_72 
REMARK   22 I    between atoms: C2_28  and  O2_69 
REMARK   23 I    between atoms: C4_33  and  O4_61 
REMARK   24 I    between atoms: O2S_34  and  S1_45 
REMARK   25 I    between atoms: C6_37  and  C5_47 
REMARK   26 I    between atoms: O2_38  and  C2_77 
REMARK   27 I    between atoms: O2_38  and  S_50 
REMARK   28 I    between atoms: O3S_40  and  S1_53 
REMARK   29 I    between atoms: O1S_42  and  S1_45 
REMARK   30 I    between atoms: O1S_43  and  S1_53 
REMARK   31 I    between atoms: O4_44  and  C1_46 
REMARK   32 I    between atoms: S1_45  and  O3S_60 
REMARK   33 I    between atoms: C6_48  and  C5_84 
REMARK   34 I    between atoms: C6_51  and  C5_87 
REMARK   35 I    between atoms: S1_53  and  O2S_55 
REMARK   36 I    between atoms: C1_56  and  O4_74 
REMARK   37 I    between atoms: O6_57  and  S2_82 
REMARK   38 I    between atoms: O4_61  and  C1_70 
REMARK   39 I    between atoms: C3_63  and  O3_79 
REMARK   40 I    between atoms: O2_69  and  S_76 
ROOT
ATOM      1  C3  IDS d 504     -14.792  52.220 174.076  0.00  0.00     0.185 C 
ATOM      2  C4  IDS d 504     -15.607  51.194 173.304  0.00  0.00     0.195 C 
ATOM      3  C1  IDS d 504     -13.352  50.263 174.916  0.00  0.00     0.294 C 
ATOM      4  O5  IDS d 504     -14.226  49.418 174.160  0.00  0.00    -0.340 OA
ATOM      5  C2  IDS d 504     -14.028  51.567 175.291  0.00  0.00     0.231 C 
ATOM      6  C5  IDS d 504     -14.713  50.000 172.973  0.00  0.00     0.257 C 
ENDROOT
BRANCH   2   7
ATOM      7  O4  IDS d 504     -16.708  50.775 174.097  0.00  0.00    -0.348 OA
BRANCH   7   8
ATOM      8  C1  SGN d 505     -17.925  51.368 173.735  0.00  0.00     0.282 C 
ATOM      9  O5  SGN d 505     -18.740  50.444 173.071  0.00  0.00    -0.349 OA
ATOM     10  C5  SGN d 505     -19.130  49.367 173.866  0.00  0.00     0.181 C 
ATOM     11  C4  SGN d 505     -19.993  49.836 174.992  0.00  0.00     0.186 C 
ATOM     12  C3  SGN d 505     -19.110  50.767 175.872  0.00  0.00     0.173 C 
ATOM     13  C2  SGN d 505     -18.660  51.913 174.944  0.00  0.00     0.157 C 
BRANCH  10  14
ATOM     14  C6  SGN d 505     -19.831  48.408 172.959  0.00  0.00     0.227 C 
BRANCH  14  15
ATOM     15  O6  SGN d 505     -18.862  47.982 172.063  0.00  0.00    -0.254 OA
BRANCH  15  16
ATOM     16  S2  SGN d 505     -19.018  46.941 170.964  0.00  0.00     0.251 S 
ATOM     17  O5S SGN d 505     -18.739  47.658 169.745  0.00  0.00    -0.572 OA
ATOM     18  O4S SGN d 505     -20.381  46.477 171.088  0.00  0.00    -0.572 OA
ATOM     19  O6S SGN d 505     -18.041  45.894 171.231  0.00  0.00    -0.572 OA
ENDBRANCH  15  16
ENDBRANCH  14  15
ENDBRANCH  10  14
BRANCH  11  20
ATOM     20  O4  SGN d 505     -20.466  48.667 175.628  0.00  0.00    -0.348 OA
BRANCH  20  21
ATOM     21  C1  IDS d 506     -21.780  48.494 176.037  0.00  0.00     0.294 C 
ATOM     22  C2  IDS d 506     -21.887  47.179 176.822  0.00  0.00     0.231 C 
ATOM     23  C3  IDS d 506     -23.353  46.710 177.039  0.00  0.00     0.185 C 
ATOM     24  C4  IDS d 506     -24.276  46.980 175.832  0.00  0.00     0.189 C 
ATOM     25  C5  IDS d 506     -23.942  48.327 175.184  0.00  0.00     0.256 C 
ATOM     26  O5  IDS d 506     -22.586  48.393 174.890  0.00  0.00    -0.340 OA
BRANCH  22  27
ATOM     27  O2  IDS d 506     -21.225  46.142 176.126  0.00  0.00    -0.244 OA
BRANCH  27  28
ATOM     28  S   IDS d 506     -20.073  45.182 176.653  0.00  0.00     0.252 S 
ATOM     29  O1S IDS d 506     -20.591  44.607 177.857  0.00  0.00    -0.572 OA
ATOM     30  O2S IDS d 506     -19.843  44.173 175.657  0.00  0.00    -0.572 OA
ATOM     31  O3S IDS d 506     -18.928  46.037 176.875  0.00  0.00    -0.572 OA
ENDBRANCH  27  28
ENDBRANCH  22  27
BRANCH  23  32
ATOM     32  O3  IDS d 506     -23.881  47.390 178.175  0.00  0.00    -0.390 OA
ATOM     33  H   IDS d 506     -23.176  47.899 178.605  0.00  0.00     0.210 HD
ENDBRANCH  23  32
BRANCH  24  34
ATOM     34  O4  IDS d 506     -24.067  45.941 174.905  0.00  0.00    -0.390 OA
ATOM     35  H   IDS d 506     -24.156  45.085 175.353  0.00  0.00     0.210 HD
ENDBRANCH  24  34
BRANCH  25  36
ATOM     36  C6  IDS d 506     -24.743  48.704 173.951  0.00  0.00     0.206 C 
ATOM     37  O62 IDS d 506     -24.502  49.710 173.306  0.00  0.00    -0.646 OA
ATOM     38  O61 IDS d 506     -25.651  47.981 173.567  0.00  0.00    -0.646 OA
ENDBRANCH  25  36
ENDBRANCH  20  21
ENDBRANCH  11  20
BRANCH  12  39
ATOM     39  O3  SGN d 505     -19.874  51.321 176.935  0.00  0.00    -0.391 OA
ATOM     40  H   SGN d 505     -20.813  51.324 176.692  0.00  0.00     0.210 HD
ENDBRANCH  12  39
BRANCH  13  41
ATOM     41  N   SGN d 505     -17.836  52.962 175.587  0.00  0.00    -0.210 NA
ATOM     42  H   SGN d 505     -16.939  52.987 175.101  0.00  0.00     0.140 HD
BRANCH  41  43
ATOM     43  S1  SGN d 505     -18.442  54.525 175.597  0.00  0.00     0.156 S 
BRANCH  43  44
ATOM     44  O3S SGN d 505     -19.750  54.457 176.146  0.00  0.00    -0.296 OA
ATOM     45  H   SGN d 505     -20.363  54.113 175.478  0.00  0.00     0.231 HD
ENDBRANCH  43  44
BRANCH  43  46
ATOM     46  O1S SGN d 505     -17.540  55.339 176.384  0.00  0.00    -0.296 OA
ATOM     47  H   SGN d 505     -18.005  55.669 177.169  0.00  0.00     0.231 HD
ENDBRANCH  43  46
BRANCH  43  48
ATOM     48  O2S SGN d 505     -18.474  54.921 174.209  0.00  0.00    -0.296 OA
ATOM     49  H   SGN d 505     -18.864  54.209 173.678  0.00  0.00     0.231 HD
ENDBRANCH  43  48
ENDBRANCH  41  43
ENDBRANCH  13  41
ENDBRANCH   7   8
ENDBRANCH   2   7
BRANCH   1  50
ATOM     50  O3  IDS d 504     -13.853  52.779 173.166  0.00  0.00    -0.390 OA
ATOM     51  H   IDS d 504     -13.194  53.294 173.658  0.00  0.00     0.210 HD
ENDBRANCH   1  50
BRANCH   6  52
ATOM     52  C6  IDS d 504     -15.358  48.931 172.075  0.00  0.00     0.206 C 
ATOM     53  O62 IDS d 504     -16.087  49.246 171.133  0.00  0.00    -0.646 OA
ATOM     54  O61 IDS d 504     -15.176  47.739 172.286  0.00  0.00    -0.646 OA
ENDBRANCH   6  52
BRANCH   5  55
ATOM     55  O2  IDS d 504     -14.929  51.311 176.367  0.00  0.00    -0.244 OA
BRANCH  55  56
ATOM     56  S   IDS d 504     -15.152  52.193 177.609  0.00  0.00     0.252 S 
ATOM     57  O2S IDS d 504     -14.108  51.896 178.545  0.00  0.00    -0.572 OA
ATOM     58  O3S IDS d 504     -15.130  53.510 177.091  0.00  0.00    -0.572 OA
ATOM     59  O1S IDS d 504     -16.427  51.847 178.121  0.00  0.00    -0.572 OA
ENDBRANCH  55  56
ENDBRANCH   5  55
BRANCH   3  60
ATOM     60  O4  SGN d 503     -12.170  50.562 174.230  0.00  0.00    -0.348 OA
BRANCH  60  61
ATOM     61  C4  SGN d 503     -11.123  49.689 174.499  0.00  0.00     0.186 C 
ATOM     62  C5  SGN d 503      -9.817  50.498 174.589  0.00  0.00     0.181 C 
ATOM     63  O5  SGN d 503      -8.718  49.657 174.753  0.00  0.00    -0.349 OA
ATOM     64  C1  SGN d 503      -8.531  48.767 173.681  0.00  0.00     0.282 C 
ATOM     65  C2  SGN d 503      -9.764  47.863 173.544  0.00  0.00     0.157 C 
ATOM     66  C3  SGN d 503     -11.035  48.673 173.363  0.00  0.00     0.173 C 
BRANCH  62  67
ATOM     67  C6  SGN d 503      -9.749  51.442 175.759  0.00  0.00     0.227 C 
BRANCH  67  68
ATOM     68  O6  SGN d 503      -8.631  52.281 175.564  0.00  0.00    -0.254 OA
BRANCH  68  69
ATOM     69  S2  SGN d 503      -7.564  52.626 176.635  0.00  0.00     0.251 S 
ATOM     70  O6S SGN d 503      -8.308  52.730 177.829  0.00  0.00    -0.572 OA
ATOM     71  O4S SGN d 503      -6.650  51.538 176.722  0.00  0.00    -0.572 OA
ATOM     72  O5S SGN d 503      -6.908  53.857 176.205  0.00  0.00    -0.572 OA
ENDBRANCH  68  69
ENDBRANCH  67  68
ENDBRANCH  62  67
BRANCH  64  73
ATOM     73  O4  IDS d 502      -8.277  49.452 172.485  0.00  0.00    -0.348 OA
BRANCH  73  74
ATOM     74  C4  IDS d 502      -6.921  49.528 172.127  0.00  0.00     0.195 C 
ATOM     75  C3  IDS d 502      -6.573  48.373 171.169  0.00  0.00     0.185 C 
ATOM     76  C2  IDS d 502      -7.234  48.577 169.802  0.00  0.00     0.231 C 
ATOM     77  C1  IDS d 502      -7.014  49.989 169.269  0.00  0.00     0.291 C 
ATOM     78  O5  IDS d 502      -7.361  50.957 170.227  0.00  0.00    -0.340 OA
ATOM     79  C5  IDS d 502      -6.649  50.867 171.445  0.00  0.00     0.257 C 
BRANCH  75  80
ATOM     80  O3  IDS d 502      -5.172  48.341 170.977  0.00  0.00    -0.390 OA
ATOM     81  H   IDS d 502      -4.876  49.191 170.617  0.00  0.00     0.210 HD
ENDBRANCH  75  80
BRANCH  76  82
ATOM     82  O2  IDS d 502      -8.613  48.388 169.974  0.00  0.00    -0.244 OA
BRANCH  82  83
ATOM     83  S   IDS d 502      -9.551  47.411 169.191  0.00  0.00     0.252 S 
ATOM     84  O3S IDS d 502      -9.059  46.095 169.510  0.00  0.00    -0.572 OA
ATOM     85  O2S IDS d 502      -9.412  47.763 167.797  0.00  0.00    -0.572 OA
ATOM     86  O1S IDS d 502     -10.886  47.620 169.677  0.00  0.00    -0.572 OA
ENDBRANCH  82  83
ENDBRANCH  76  82
BRANCH  77  87
ATOM     87  O1  IDS d 502      -5.676  50.091 168.858  0.00  0.00    -0.368 OA
ATOM     88  H   IDS d 502      -5.475  49.378 168.231  0.00  0.00     0.212 HD
ENDBRANCH  77  87
BRANCH  79  89
ATOM     89  C6  IDS d 502      -6.926  52.081 172.321  0.00  0.00     0.206 C 
ATOM     90  O61 IDS d 502      -7.852  52.821 172.093  0.00  0.00    -0.646 OA
ATOM     91  O62 IDS d 502      -6.222  52.336 173.279  0.00  0.00    -0.646 OA
ENDBRANCH  79  89
ENDBRANCH  73  74
ENDBRANCH  64  73
BRANCH  65  92
ATOM     92  N   SGN d 503      -9.582  46.915 172.458  0.00  0.00    -0.210 NA
ATOM     93  H   SGN d 503      -8.578  46.809 172.311  0.00  0.00     0.140 HD
BRANCH  92  94
ATOM     94  S1  SGN d 503     -10.206  45.424 172.647  0.00  0.00     0.156 S 
BRANCH  94  95
ATOM     95  O2S SGN d 503     -10.591  45.264 174.049  0.00  0.00    -0.296 OA
ATOM     96  H   SGN d 503     -11.532  45.476 174.152  0.00  0.00     0.231 HD
ENDBRANCH  94  95
BRANCH  94  97
ATOM     97  O1S SGN d 503      -9.161  44.496 172.260  0.00  0.00    -0.296 OA
ATOM     98  H   SGN d 503      -8.981  44.589 171.311  0.00  0.00     0.231 HD
ENDBRANCH  94  97
BRANCH  94  99
ATOM     99  O3S SGN d 503     -11.323  45.414 171.730  0.00  0.00    -0.296 OA
ATOM    100  H   SGN d 503     -10.995  45.495 170.821  0.00  0.00     0.231 HD
ENDBRANCH  94  99
ENDBRANCH  92  94
ENDBRANCH  65  92
BRANCH  66 101
ATOM    101  O3  SGN d 503     -12.164  47.823 173.444  0.00  0.00    -0.391 OA
ATOM    102  H   SGN d 503     -12.951  48.350 173.650  0.00  0.00     0.210 HD
ENDBRANCH  66 101
ENDBRANCH  60  61
ENDBRANCH   3  60
TORSDOF 40
ENDMDL
MODEL 90
REMARK VINA RESULT:      -1.4      4.557      6.681
REMARK WARNING: 32 MAX_TORS EXCEEDED!!!
REMARK  40 active torsions:
REMARK  status: ('A' for Active; 'I' for Inactive)
REMARK    1 I    between atoms: C6_1  and  C5_8 
REMARK    2 I    between atoms: C6_1  and  O6_57 
REMARK    3 I    between atoms: O4_2  and  C4_49 
REMARK    4 I    between atoms: O6_3  and  C6_7 
REMARK    5 I    between atoms: O6_3  and  S2_58 
REMARK    6 I    between atoms: S_4  and  O2_6 
REMARK    7 I    between atoms: O3_5  and  C3_81 
REMARK    8 I    between atoms: O2_6  and  C2_11 
REMARK    9 I    between atoms: C6_7  and  C5_54 
REMARK   10 I    between atoms: O4_9  and  C4_32 
REMARK   11 I    between atoms: O4_9  and  C1_39 
REMARK   12 I    between atoms: O3_12  and  C3_18 
REMARK   13 I    between atoms: N_13  and  C2_52 
REMARK   14 I    between atoms: N_13  and  S1_45 
REMARK   15 I    between atoms: O3_17  and  C3_83 
REMARK   16 I    between atoms: C4_20  and  O4_44 
REMARK   17 I    between atoms: N_21  and  C2_66 
REMARK   18 I    between atoms: N_21  and  S1_53 
REMARK   19 I    between atoms: O3_22  and  C3_65 
REMARK   20 I    between atoms: C4_23  and  O4_74 
REMARK   21 I    between atoms: C1_25  and  O1_72 
REMARK   22 I    between atoms: C2_28  and  O2_69 
REMARK   23 I    between atoms: C4_33  and  O4_61 
REMARK   24 I    between atoms: O2S_34  and  S1_45 
REMARK   25 I    between atoms: C6_37  and  C5_47 
REMARK   26 I    between atoms: O2_38  and  C2_77 
REMARK   27 I    between atoms: O2_38  and  S_50 
REMARK   28 I    between atoms: O3S_40  and  S1_53 
REMARK   29 I    between atoms: O1S_42  and  S1_45 
REMARK   30 I    between atoms: O1S_43  and  S1_53 
REMARK   31 I    between atoms: O4_44  and  C1_46 
REMARK   32 I    between atoms: S1_45  and  O3S_60 
REMARK   33 I    between atoms: C6_48  and  C5_84 
REMARK   34 I    between atoms: C6_51  and  C5_87 
REMARK   35 I    between atoms: S1_53  and  O2S_55 
REMARK   36 I    between atoms: C1_56  and  O4_74 
REMARK   37 I    between atoms: O6_57  and  S2_82 
REMARK   38 I    between atoms: O4_61  and  C1_70 
REMARK   39 I    between atoms: C3_63  and  O3_79 
REMARK   40 I    between atoms: O2_69  and  S_76 
ROOT
ATOM      1  C3  IDS d 504     -15.573  46.266 173.370  0.00  0.00     0.185 C 
ATOM      2  C4  IDS d 504     -14.867  47.214 172.413  0.00  0.00     0.195 C 
ATOM      3  C1  IDS d 504     -17.439  48.028 173.542  0.00  0.00     0.294 C 
ATOM      4  O5  IDS d 504     -16.644  48.821 172.654  0.00  0.00    -0.340 OA
ATOM      5  C2  IDS d 504     -16.591  47.029 174.304  0.00  0.00     0.231 C 
ATOM      6  C5  IDS d 504     -15.913  48.075 171.707  0.00  0.00     0.257 C 
ENDROOT
BRANCH   2   7
ATOM      7  O4  IDS d 504     -13.970  48.037 173.144  0.00  0.00    -0.348 OA
BRANCH   7   8
ATOM      8  C1  SGN d 505     -12.913  47.334 173.740  0.00  0.00     0.282 C 
ATOM      9  O5  SGN d 505     -12.126  46.715 172.761  0.00  0.00    -0.349 OA
ATOM     10  C5  SGN d 505     -11.478  47.612 171.912  0.00  0.00     0.181 C 
ATOM     11  C4  SGN d 505     -10.490  48.432 172.677  0.00  0.00     0.186 C 
ATOM     12  C3  SGN d 505     -11.307  49.270 173.704  0.00  0.00     0.173 C 
ATOM     13  C2  SGN d 505     -12.045  48.244 174.586  0.00  0.00     0.157 C 
BRANCH  10  14
ATOM     14  C6  SGN d 505     -10.841  46.789 170.840  0.00  0.00     0.227 C 
BRANCH  14  15
ATOM     15  O6  SGN d 505     -11.552  45.599 170.826  0.00  0.00    -0.254 OA
BRANCH  15  16
ATOM     16  S2  SGN d 505     -10.997  44.196 170.627  0.00  0.00     0.251 S 
ATOM     17  O5S SGN d 505     -10.809  43.688 171.963  0.00  0.00    -0.572 OA
ATOM     18  O4S SGN d 505      -9.773  44.388 169.882  0.00  0.00    -0.572 OA
ATOM     19  O6S SGN d 505     -11.998  43.446 169.880  0.00  0.00    -0.572 OA
ENDBRANCH  15  16
ENDBRANCH  14  15
ENDBRANCH  10  14
BRANCH  11  20
ATOM     20  O4  SGN d 505      -9.779  49.178 171.711  0.00  0.00    -0.348 OA
BRANCH  20  21
ATOM     21  C1  IDS d 506      -8.804  50.111 172.029  0.00  0.00     0.294 C 
ATOM     22  C2  IDS d 506      -8.007  50.449 170.760  0.00  0.00     0.231 C 
ATOM     23  C3  IDS d 506      -6.687  51.215 171.049  0.00  0.00     0.185 C 
ATOM     24  C4  IDS d 506      -5.961  50.743 172.326  0.00  0.00     0.189 C 
ATOM     25  C5  IDS d 506      -6.969  50.416 173.433  0.00  0.00     0.256 C 
ATOM     26  O5  IDS d 506      -7.927  49.528 172.960  0.00  0.00    -0.340 OA
BRANCH  22  27
ATOM     27  O2  IDS d 506      -7.651  49.262 170.079  0.00  0.00    -0.244 OA
BRANCH  27  28
ATOM     28  S   IDS d 506      -7.521  49.027 168.513  0.00  0.00     0.252 S 
ATOM     29  O1S IDS d 506      -8.866  49.012 168.026  0.00  0.00    -0.572 OA
ATOM     30  O2S IDS d 506      -6.782  50.125 167.957  0.00  0.00    -0.572 OA
ATOM     31  O3S IDS d 506      -6.848  47.754 168.367  0.00  0.00    -0.572 OA
ENDBRANCH  27  28
ENDBRANCH  22  27
BRANCH  23  32
ATOM     32  O3  IDS d 506      -6.989  52.602 171.185  0.00  0.00    -0.390 OA
ATOM     33  H   IDS d 506      -7.880  52.774 170.841  0.00  0.00     0.210 HD
ENDBRANCH  23  32
BRANCH  24  34
ATOM     34  O4  IDS d 506      -5.232  49.586 171.990  0.00  0.00    -0.390 OA
ATOM     35  H   IDS d 506      -5.308  48.936 172.706  0.00  0.00     0.210 HD
ENDBRANCH  24  34
BRANCH  25  36
ATOM     36  C6  IDS d 506      -6.398  49.892 174.738  0.00  0.00     0.206 C 
ATOM     37  O62 IDS d 506      -7.100  49.375 175.589  0.00  0.00    -0.646 OA
ATOM     38  O61 IDS d 506      -5.196  49.968 174.954  0.00  0.00    -0.646 OA
ENDBRANCH  25  36
ENDBRANCH  20  21
ENDBRANCH  11  20
BRANCH  12  39
ATOM     39  O3  SGN d 505     -10.438  50.033 174.530  0.00  0.00    -0.391 OA
ATOM     40  H   SGN d 505     -10.702  49.932 175.458  0.00  0.00     0.210 HD
ENDBRANCH  12  39
BRANCH  13  41
ATOM     41  N   SGN d 505     -12.860  48.819 175.681  0.00  0.00    -0.210 NA
ATOM     42  H   SGN d 505     -13.730  48.289 175.725  0.00  0.00     0.140 HD
BRANCH  41  43
ATOM     43  S1  SGN d 505     -12.197  48.822 177.220  0.00  0.00     0.156 S 
BRANCH  43  44
ATOM     44  O3S SGN d 505     -10.804  49.056 177.070  0.00  0.00    -0.296 OA
ATOM     45  H   SGN d 505     -10.382  48.267 176.695  0.00  0.00     0.231 HD
ENDBRANCH  43  44
BRANCH  43  46
ATOM     46  O1S SGN d 505     -12.865  49.855 177.983  0.00  0.00    -0.296 OA
ATOM     47  H   SGN d 505     -13.493  49.446 178.598  0.00  0.00     0.231 HD
ENDBRANCH  43  46
BRANCH  43  48
ATOM     48  O2S SGN d 505     -12.455  47.499 177.739  0.00  0.00    -0.296 OA
ATOM     49  H   SGN d 505     -13.250  47.518 178.293  0.00  0.00     0.231 HD
ENDBRANCH  43  48
ENDBRANCH  41  43
ENDBRANCH  13  41
ENDBRANCH   7   8
ENDBRANCH   2   7
BRANCH   1  50
ATOM     50  O3  IDS d 504     -16.274  45.316 172.577  0.00  0.00    -0.390 OA
ATOM     51  H   IDS d 504     -15.872  44.441 172.692  0.00  0.00     0.210 HD
ENDBRANCH   1  50
BRANCH   6  52
ATOM     52  C6  IDS d 504     -15.364  48.997 170.606  0.00  0.00     0.206 C 
ATOM     53  O62 IDS d 504     -15.272  48.610 169.438  0.00  0.00    -0.646 OA
ATOM     54  O61 IDS d 504     -14.986  50.132 170.865  0.00  0.00    -0.646 OA
ENDBRANCH   6  52
BRANCH   5  55
ATOM     55  O2  IDS d 504     -15.895  47.726 175.335  0.00  0.00    -0.244 OA
BRANCH  55  56
ATOM     56  S   IDS d 504     -15.831  47.340 176.824  0.00  0.00     0.252 S 
ATOM     57  O2S IDS d 504     -17.126  46.858 177.204  0.00  0.00    -0.572 OA
ATOM     58  O3S IDS d 504     -14.798  46.374 176.875  0.00  0.00    -0.572 OA
ATOM     59  O1S IDS d 504     -15.486  48.521 177.529  0.00  0.00    -0.572 OA
ENDBRANCH  55  56
ENDBRANCH   5  55
BRANCH   3  60
ATOM     60  O4  SGN d 503     -18.450  47.328 172.876  0.00  0.00    -0.348 OA
BRANCH  60  61
ATOM     61  C4  SGN d 503     -19.681  47.974 172.878  0.00  0.00     0.186 C 
ATOM     62  C5  SGN d 503     -20.760  46.978 173.337  0.00  0.00     0.181 C 
ATOM     63  O5  SGN d 503     -22.031  47.544 173.257  0.00  0.00    -0.349 OA
ATOM     64  C1  SGN d 503     -22.396  47.912 171.950  0.00  0.00     0.282 C 
ATOM     65  C2  SGN d 503     -21.409  48.961 171.418  0.00  0.00     0.157 C 
ATOM     66  C3  SGN d 503     -19.979  48.456 171.460  0.00  0.00     0.173 C 
BRANCH  62  67
ATOM     67  C6  SGN d 503     -20.632  46.537 174.770  0.00  0.00     0.227 C 
BRANCH  67  68
ATOM     68  O6  SGN d 503     -21.173  47.559 175.579  0.00  0.00    -0.254 OA
BRANCH  68  69
ATOM     69  S2  SGN d 503     -20.868  47.775 177.085  0.00  0.00     0.251 S 
ATOM     70  O6S SGN d 503     -20.404  46.515 177.518  0.00  0.00    -0.572 OA
ATOM     71  O4S SGN d 503     -19.830  48.743 177.196  0.00  0.00    -0.572 OA
ATOM     72  O5S SGN d 503     -22.106  48.229 177.711  0.00  0.00    -0.572 OA
ENDBRANCH  68  69
ENDBRANCH  67  68
ENDBRANCH  62  67
BRANCH  64  73
ATOM     73  O4  IDS d 502     -22.451  46.799 171.100  0.00  0.00    -0.348 OA
BRANCH  73  74
ATOM     74  C4  IDS d 502     -23.660  46.085 171.142  0.00  0.00     0.195 C 
ATOM     75  C3  IDS d 502     -24.636  46.660 170.098  0.00  0.00     0.185 C 
ATOM     76  C2  IDS d 502     -24.170  46.336 168.676  0.00  0.00     0.231 C 
ATOM     77  C1  IDS d 502     -23.801  44.865 168.519  0.00  0.00     0.291 C 
ATOM     78  O5  IDS d 502     -22.910  44.451 169.525  0.00  0.00    -0.340 OA
ATOM     79  C5  IDS d 502     -23.390  44.612 170.845  0.00  0.00     0.257 C 
BRANCH  75  80
ATOM     80  O3  IDS d 502     -25.909  46.072 170.288  0.00  0.00    -0.390 OA
ATOM     81  H   IDS d 502     -26.254  46.323 171.158  0.00  0.00     0.210 HD
ENDBRANCH  75  80
BRANCH  76  82
ATOM     82  O2  IDS d 502     -23.021  47.102 168.430  0.00  0.00    -0.244 OA
BRANCH  82  83
ATOM     83  S   IDS d 502     -22.697  47.962 167.164  0.00  0.00     0.252 S 
ATOM     84  O3S IDS d 502     -23.620  49.065 167.223  0.00  0.00    -0.572 OA
ATOM     85  O2S IDS d 502     -22.902  47.090 166.031  0.00  0.00    -0.572 OA
ATOM     86  O1S IDS d 502     -21.332  48.393 167.281  0.00  0.00    -0.572 OA
ENDBRANCH  82  83
ENDBRANCH  76  82
BRANCH  77  87
ATOM     87  O1  IDS d 502     -24.989  44.119 168.512  0.00  0.00    -0.368 OA
ATOM     88  H   IDS d 502     -24.937  43.421 169.183  0.00  0.00     0.212 HD
ENDBRANCH  77  87
BRANCH  79  89
ATOM     89  C6  IDS d 502     -22.461  43.933 171.842  0.00  0.00     0.206 C 
ATOM     90  O61 IDS d 502     -21.421  43.433 171.489  0.00  0.00    -0.646 OA
ATOM     91  O62 IDS d 502     -22.742  43.882 173.024  0.00  0.00    -0.646 OA
ENDBRANCH  79  89
ENDBRANCH  73  74
ENDBRANCH  64  73
BRANCH  65  92
ATOM     92  N   SGN d 503     -21.783  49.378 170.077  0.00  0.00    -0.210 NA
ATOM     93  H   SGN d 503     -22.635  48.875 169.828  0.00  0.00     0.140 HD
BRANCH  92  94
ATOM     94  S1  SGN d 503     -22.064  50.962 169.832  0.00  0.00     0.156 S 
BRANCH  94  95
ATOM     95  O2S SGN d 503     -21.886  51.242 168.408  0.00  0.00    -0.296 OA
ATOM     96  H   SGN d 503     -22.332  52.074 168.184  0.00  0.00     0.231 HD
ENDBRANCH  94  95
BRANCH  94  97
ATOM     97  O1S SGN d 503     -21.103  51.675 170.652  0.00  0.00    -0.296 OA
ATOM     98  H   SGN d 503     -20.986  52.573 170.305  0.00  0.00     0.231 HD
ENDBRANCH  94  97
BRANCH  94  99
ATOM     99  O3S SGN d 503     -23.422  51.133 170.296  0.00  0.00    -0.296 OA
ATOM    100  H   SGN d 503     -23.662  52.072 170.253  0.00  0.00     0.231 HD
ENDBRANCH  94  99
ENDBRANCH  92  94
ENDBRANCH  65  92
BRANCH  66 101
ATOM    101  O3  SGN d 503     -19.086  49.511 171.157  0.00  0.00    -0.391 OA
ATOM    102  H   SGN d 503     -18.972  50.073 171.939  0.00  0.00     0.210 HD
ENDBRANCH  66 101
ENDBRANCH  60  61
ENDBRANCH   3  60
TORSDOF 40
ENDMDL
MODEL 91
REMARK VINA RESULT:      -1.4      4.107     11.662
REMARK WARNING: 32 MAX_TORS EXCEEDED!!!
REMARK  40 active torsions:
REMARK  status: ('A' for Active; 'I' for Inactive)
REMARK    1 I    between atoms: C6_1  and  C5_8 
REMARK    2 I    between atoms: C6_1  and  O6_57 
REMARK    3 I    between atoms: O4_2  and  C4_49 
REMARK    4 I    between atoms: O6_3  and  C6_7 
REMARK    5 I    between atoms: O6_3  and  S2_58 
REMARK    6 I    between atoms: S_4  and  O2_6 
REMARK    7 I    between atoms: O3_5  and  C3_81 
REMARK    8 I    between atoms: O2_6  and  C2_11 
REMARK    9 I    between atoms: C6_7  and  C5_54 
REMARK   10 I    between atoms: O4_9  and  C4_32 
REMARK   11 I    between atoms: O4_9  and  C1_39 
REMARK   12 I    between atoms: O3_12  and  C3_18 
REMARK   13 I    between atoms: N_13  and  C2_52 
REMARK   14 I    between atoms: N_13  and  S1_45 
REMARK   15 I    between atoms: O3_17  and  C3_83 
REMARK   16 I    between atoms: C4_20  and  O4_44 
REMARK   17 I    between atoms: N_21  and  C2_66 
REMARK   18 I    between atoms: N_21  and  S1_53 
REMARK   19 I    between atoms: O3_22  and  C3_65 
REMARK   20 I    between atoms: C4_23  and  O4_74 
REMARK   21 I    between atoms: C1_25  and  O1_72 
REMARK   22 I    between atoms: C2_28  and  O2_69 
REMARK   23 I    between atoms: C4_33  and  O4_61 
REMARK   24 I    between atoms: O2S_34  and  S1_45 
REMARK   25 I    between atoms: C6_37  and  C5_47 
REMARK   26 I    between atoms: O2_38  and  C2_77 
REMARK   27 I    between atoms: O2_38  and  S_50 
REMARK   28 I    between atoms: O3S_40  and  S1_53 
REMARK   29 I    between atoms: O1S_42  and  S1_45 
REMARK   30 I    between atoms: O1S_43  and  S1_53 
REMARK   31 I    between atoms: O4_44  and  C1_46 
REMARK   32 I    between atoms: S1_45  and  O3S_60 
REMARK   33 I    between atoms: C6_48  and  C5_84 
REMARK   34 I    between atoms: C6_51  and  C5_87 
REMARK   35 I    between atoms: S1_53  and  O2S_55 
REMARK   36 I    between atoms: C1_56  and  O4_74 
REMARK   37 I    between atoms: O6_57  and  S2_82 
REMARK   38 I    between atoms: O4_61  and  C1_70 
REMARK   39 I    between atoms: C3_63  and  O3_79 
REMARK   40 I    between atoms: O2_69  and  S_76 
ROOT
ATOM      1  C3  IDS d 504     -14.440  50.995 174.562  0.00  0.00     0.185 C 
ATOM      2  C4  IDS d 504     -15.254  50.167 173.579  0.00  0.00     0.195 C 
ATOM      3  C1  IDS d 504     -12.867  48.972 174.771  0.00  0.00     0.294 C 
ATOM      4  O5  IDS d 504     -13.747  48.310 173.857  0.00  0.00    -0.340 OA
ATOM      5  C2  IDS d 504     -13.575  50.085 175.517  0.00  0.00     0.231 C 
ATOM      6  C5  IDS d 504     -14.331  49.160 172.896  0.00  0.00     0.257 C 
ENDROOT
BRANCH   2   7
ATOM      7  O4  IDS d 504     -16.285  49.488 174.280  0.00  0.00    -0.348 OA
BRANCH   7   8
ATOM      8  C1  SGN d 505     -17.490  50.201 174.348  0.00  0.00     0.282 C 
ATOM      9  O5  SGN d 505     -18.358  49.791 173.330  0.00  0.00    -0.349 OA
ATOM     10  C5  SGN d 505     -18.764  48.461 173.440  0.00  0.00     0.181 C 
ATOM     11  C4  SGN d 505     -19.576  48.266 174.679  0.00  0.00     0.186 C 
ATOM     12  C3  SGN d 505     -18.632  48.565 175.880  0.00  0.00     0.173 C 
ATOM     13  C2  SGN d 505     -18.168  50.023 175.692  0.00  0.00     0.157 C 
BRANCH  10  14
ATOM     14  C6  SGN d 505     -19.527  48.151 172.192  0.00  0.00     0.227 C 
BRANCH  14  15
ATOM     15  O6  SGN d 505     -20.629  48.992 172.223  0.00  0.00    -0.254 OA
BRANCH  15  16
ATOM     16  S2  SGN d 505     -21.254  49.734 171.051  0.00  0.00     0.251 S 
ATOM     17  O5S SGN d 505     -20.643  51.040 171.081  0.00  0.00    -0.572 OA
ATOM     18  O4S SGN d 505     -22.673  49.731 171.328  0.00  0.00    -0.572 OA
ATOM     19  O6S SGN d 505     -20.915  48.988 169.847  0.00  0.00    -0.572 OA
ENDBRANCH  15  16
ENDBRANCH  14  15
ENDBRANCH  10  14
BRANCH  11  20
ATOM     20  O4  SGN d 505     -20.073  46.946 174.609  0.00  0.00    -0.348 OA
BRANCH  20  21
ATOM     21  C1  IDS d 506     -21.259  46.541 175.202  0.00  0.00     0.294 C 
ATOM     22  C2  IDS d 506     -21.483  45.052 174.900  0.00  0.00     0.231 C 
ATOM     23  C3  IDS d 506     -22.926  44.570 175.217  0.00  0.00     0.185 C 
ATOM     24  C4  IDS d 506     -24.016  45.611 174.881  0.00  0.00     0.189 C 
ATOM     25  C5  IDS d 506     -23.539  47.026 175.223  0.00  0.00     0.256 C 
ATOM     26  O5  IDS d 506     -22.309  47.273 174.624  0.00  0.00    -0.340 OA
BRANCH  22  27
ATOM     27  O2  IDS d 506     -21.258  44.796 173.527  0.00  0.00    -0.244 OA
BRANCH  27  28
ATOM     28  S   IDS d 506     -20.140  43.880 172.868  0.00  0.00     0.252 S 
ATOM     29  O1S IDS d 506     -20.847  42.759 172.329  0.00  0.00    -0.572 OA
ATOM     30  O2S IDS d 506     -19.501  44.635 171.828  0.00  0.00    -0.572 OA
ATOM     31  O3S IDS d 506     -19.244  43.524 173.947  0.00  0.00    -0.572 OA
ENDBRANCH  27  28
ENDBRANCH  22  27
BRANCH  23  32
ATOM     32  O3  IDS d 506     -23.005  44.263 176.607  0.00  0.00    -0.390 OA
ATOM     33  H   IDS d 506     -23.732  44.765 177.008  0.00  0.00     0.210 HD
ENDBRANCH  23  32
BRANCH  24  34
ATOM     34  O4  IDS d 506     -24.273  45.516 173.500  0.00  0.00    -0.390 OA
ATOM     35  H   IDS d 506     -25.088  45.997 173.288  0.00  0.00     0.210 HD
ENDBRANCH  24  34
BRANCH  25  36
ATOM     36  C6  IDS d 506     -24.493  48.161 174.900  0.00  0.00     0.206 C 
ATOM     37  O62 IDS d 506     -24.779  48.458 173.753  0.00  0.00    -0.646 OA
ATOM     38  O61 IDS d 506     -25.014  48.798 175.805  0.00  0.00    -0.646 OA
ENDBRANCH  25  36
ENDBRANCH  20  21
ENDBRANCH  11  20
BRANCH  12  39
ATOM     39  O3  SGN d 505     -19.343  48.473 177.108  0.00  0.00    -0.391 OA
ATOM     40  H   SGN d 505     -20.220  48.877 177.006  0.00  0.00     0.210 HD
ENDBRANCH  12  39
BRANCH  13  41
ATOM     41  N   SGN d 505     -17.286  50.550 176.759  0.00  0.00    -0.210 NA
ATOM     42  H   SGN d 505     -16.333  50.552 176.396  0.00  0.00     0.140 HD
BRANCH  41  43
ATOM     43  S1  SGN d 505     -17.606  52.091 177.335  0.00  0.00     0.156 S 
BRANCH  43  44
ATOM     44  O3S SGN d 505     -19.013  52.192 177.491  0.00  0.00    -0.296 OA
ATOM     45  H   SGN d 505     -19.216  52.581 178.355  0.00  0.00     0.231 HD
ENDBRANCH  43  44
BRANCH  43  46
ATOM     46  O1S SGN d 505     -16.886  52.250 178.582  0.00  0.00    -0.296 OA
ATOM     47  H   SGN d 505     -16.235  52.962 178.490  0.00  0.00     0.231 HD
ENDBRANCH  43  46
BRANCH  43  48
ATOM     48  O2S SGN d 505     -17.125  52.981 176.304  0.00  0.00    -0.296 OA
ATOM     49  H   SGN d 505     -16.325  53.434 176.614  0.00  0.00     0.231 HD
ENDBRANCH  43  48
ENDBRANCH  41  43
ENDBRANCH  13  41
ENDBRANCH   7   8
ENDBRANCH   2   7
BRANCH   1  50
ATOM     50  O3  IDS d 504     -13.582  51.831 173.794  0.00  0.00    -0.390 OA
ATOM     51  H   IDS d 504     -13.240  52.544 174.355  0.00  0.00     0.210 HD
ENDBRANCH   1  50
BRANCH   6  52
ATOM     52  C6  IDS d 504     -14.982  48.335 171.773  0.00  0.00     0.206 C 
ATOM     53  O62 IDS d 504     -14.535  47.232 171.452  0.00  0.00    -0.646 OA
ATOM     54  O61 IDS d 504     -15.951  48.763 171.159  0.00  0.00    -0.646 OA
ENDBRANCH   6  52
BRANCH   5  55
ATOM     55  O2  IDS d 504     -14.396  49.498 176.524  0.00  0.00    -0.244 OA
BRANCH  55  56
ATOM     56  S   IDS d 504     -14.117  49.471 178.038  0.00  0.00     0.252 S 
ATOM     57  O2S IDS d 504     -12.723  49.191 178.217  0.00  0.00    -0.572 OA
ATOM     58  O3S IDS d 504     -14.528  50.753 178.476  0.00  0.00    -0.572 OA
ATOM     59  O1S IDS d 504     -14.930  48.442 178.576  0.00  0.00    -0.572 OA
ENDBRANCH  55  56
ENDBRANCH   5  55
BRANCH   3  60
ATOM     60  O4  SGN d 503     -11.743  49.512 174.137  0.00  0.00    -0.348 OA
BRANCH  60  61
ATOM     61  C4  SGN d 503     -10.638  48.669 174.129  0.00  0.00     0.186 C 
ATOM     62  C5  SGN d 503      -9.378  49.505 174.414  0.00  0.00     0.181 C 
ATOM     63  O5  SGN d 503      -8.227  48.726 174.313  0.00  0.00    -0.349 OA
ATOM     64  C1  SGN d 503      -8.031  48.184 173.030  0.00  0.00     0.282 C 
ATOM     65  C2  SGN d 503      -9.215  47.274 172.672  0.00  0.00     0.157 C 
ATOM     66  C3  SGN d 503     -10.536  48.017 172.752  0.00  0.00     0.173 C 
BRANCH  62  67
ATOM     67  C6  SGN d 503      -9.319  50.090 175.799  0.00  0.00     0.227 C 
BRANCH  67  68
ATOM     68  O6  SGN d 503      -8.676  51.342 175.705  0.00  0.00    -0.254 OA
BRANCH  68  69
ATOM     69  S2  SGN d 503      -7.420  51.775 176.507  0.00  0.00     0.251 S 
ATOM     70  O6S SGN d 503      -7.154  53.078 176.035  0.00  0.00    -0.572 OA
ATOM     71  O4S SGN d 503      -7.763  51.815 177.888  0.00  0.00    -0.572 OA
ATOM     72  O5S SGN d 503      -6.377  50.792 176.231  0.00  0.00    -0.572 OA
ENDBRANCH  68  69
ENDBRANCH  67  68
ENDBRANCH  62  67
BRANCH  64  73
ATOM     73  O4  IDS d 502      -7.863  49.190 172.068  0.00  0.00    -0.348 OA
BRANCH  73  74
ATOM     74  C4  IDS d 502      -6.563  49.295 171.548  0.00  0.00     0.195 C 
ATOM     75  C3  IDS d 502      -6.474  48.519 170.220  0.00  0.00     0.185 C 
ATOM     76  C2  IDS d 502      -7.273  49.224 169.119  0.00  0.00     0.231 C 
ATOM     77  C1  IDS d 502      -6.960  50.715 169.055  0.00  0.00     0.291 C 
ATOM     78  O5  IDS d 502      -7.070  51.316 170.321  0.00  0.00    -0.340 OA
ATOM     79  C5  IDS d 502      -6.227  50.766 171.313  0.00  0.00     0.257 C 
BRANCH  75  80
ATOM     80  O3  IDS d 502      -5.121  48.463 169.811  0.00  0.00    -0.390 OA
ATOM     81  H   IDS d 502      -4.913  47.566 169.506  0.00  0.00     0.210 HD
ENDBRANCH  75  80
BRANCH  76  82
ATOM     82  O2  IDS d 502      -8.632  49.078 169.434  0.00  0.00    -0.244 OA
BRANCH  82  83
ATOM     83  S   IDS d 502      -9.721  48.289 168.633  0.00  0.00     0.252 S 
ATOM     84  O3S IDS d 502     -10.819  48.142 169.554  0.00  0.00    -0.572 OA
ATOM     85  O2S IDS d 502      -9.105  47.038 168.257  0.00  0.00    -0.572 OA
ATOM     86  O1S IDS d 502     -10.075  49.089 167.494  0.00  0.00    -0.572 OA
ENDBRANCH  82  83
ENDBRANCH  76  82
BRANCH  77  87
ATOM     87  O1  IDS d 502      -5.682  50.864 168.496  0.00  0.00    -0.368 OA
ATOM     88  H   IDS d 502      -5.078  50.218 168.895  0.00  0.00     0.212 HD
ENDBRANCH  77  87
BRANCH  79  89
ATOM     89  C6  IDS d 502      -6.250  51.620 172.573  0.00  0.00     0.206 C 
ATOM     90  O61 IDS d 502      -7.214  52.287 172.861  0.00  0.00    -0.646 OA
ATOM     91  O62 IDS d 502      -5.296  51.649 173.327  0.00  0.00    -0.646 OA
ENDBRANCH  79  89
ENDBRANCH  73  74
ENDBRANCH  64  73
BRANCH  65  92
ATOM     92  N   SGN d 503      -9.021  46.680 171.361  0.00  0.00    -0.210 NA
ATOM     93  H   SGN d 503      -8.027  46.743 171.141  0.00  0.00     0.140 HD
BRANCH  92  94
ATOM     94  S1  SGN d 503      -9.465  45.127 171.165  0.00  0.00     0.156 S 
BRANCH  94  95
ATOM     95  O2S SGN d 503      -8.351  44.408 170.547  0.00  0.00    -0.296 OA
ATOM     96  H   SGN d 503      -7.593  45.006 170.453  0.00  0.00     0.231 HD
ENDBRANCH  94  95
BRANCH  94  97
ATOM     97  O1S SGN d 503     -10.640  45.146 170.314  0.00  0.00    -0.296 OA
ATOM     98  H   SGN d 503     -10.816  46.055 170.028  0.00  0.00     0.231 HD
ENDBRANCH  94  97
BRANCH  94  99
ATOM     99  O3S SGN d 503      -9.764  44.695 172.512  0.00  0.00    -0.296 OA
ATOM    100  H   SGN d 503      -8.946  44.409 172.948  0.00  0.00     0.231 HD
ENDBRANCH  94  99
ENDBRANCH  92  94
ENDBRANCH  65  92
BRANCH  66 101
ATOM    101  O3  SGN d 503     -11.610  47.106 172.616  0.00  0.00    -0.391 OA
ATOM    102  H   SGN d 503     -12.422  47.509 172.961  0.00  0.00     0.210 HD
ENDBRANCH  66 101
ENDBRANCH  60  61
ENDBRANCH   3  60
TORSDOF 40
ENDMDL
MODEL 92
REMARK VINA RESULT:      -1.3      4.868     12.171
REMARK WARNING: 32 MAX_TORS EXCEEDED!!!
REMARK  40 active torsions:
REMARK  status: ('A' for Active; 'I' for Inactive)
REMARK    1 I    between atoms: C6_1  and  C5_8 
REMARK    2 I    between atoms: C6_1  and  O6_57 
REMARK    3 I    between atoms: O4_2  and  C4_49 
REMARK    4 I    between atoms: O6_3  and  C6_7 
REMARK    5 I    between atoms: O6_3  and  S2_58 
REMARK    6 I    between atoms: S_4  and  O2_6 
REMARK    7 I    between atoms: O3_5  and  C3_81 
REMARK    8 I    between atoms: O2_6  and  C2_11 
REMARK    9 I    between atoms: C6_7  and  C5_54 
REMARK   10 I    between atoms: O4_9  and  C4_32 
REMARK   11 I    between atoms: O4_9  and  C1_39 
REMARK   12 I    between atoms: O3_12  and  C3_18 
REMARK   13 I    between atoms: N_13  and  C2_52 
REMARK   14 I    between atoms: N_13  and  S1_45 
REMARK   15 I    between atoms: O3_17  and  C3_83 
REMARK   16 I    between atoms: C4_20  and  O4_44 
REMARK   17 I    between atoms: N_21  and  C2_66 
REMARK   18 I    between atoms: N_21  and  S1_53 
REMARK   19 I    between atoms: O3_22  and  C3_65 
REMARK   20 I    between atoms: C4_23  and  O4_74 
REMARK   21 I    between atoms: C1_25  and  O1_72 
REMARK   22 I    between atoms: C2_28  and  O2_69 
REMARK   23 I    between atoms: C4_33  and  O4_61 
REMARK   24 I    between atoms: O2S_34  and  S1_45 
REMARK   25 I    between atoms: C6_37  and  C5_47 
REMARK   26 I    between atoms: O2_38  and  C2_77 
REMARK   27 I    between atoms: O2_38  and  S_50 
REMARK   28 I    between atoms: O3S_40  and  S1_53 
REMARK   29 I    between atoms: O1S_42  and  S1_45 
REMARK   30 I    between atoms: O1S_43  and  S1_53 
REMARK   31 I    between atoms: O4_44  and  C1_46 
REMARK   32 I    between atoms: S1_45  and  O3S_60 
REMARK   33 I    between atoms: C6_48  and  C5_84 
REMARK   34 I    between atoms: C6_51  and  C5_87 
REMARK   35 I    between atoms: S1_53  and  O2S_55 
REMARK   36 I    between atoms: C1_56  and  O4_74 
REMARK   37 I    between atoms: O6_57  and  S2_82 
REMARK   38 I    between atoms: O4_61  and  C1_70 
REMARK   39 I    between atoms: C3_63  and  O3_79 
REMARK   40 I    between atoms: O2_69  and  S_76 
ROOT
ATOM      1  C3  IDS d 504     -14.891  50.100 174.298  0.00  0.00     0.185 C 
ATOM      2  C4  IDS d 504     -15.736  49.159 173.454  0.00  0.00     0.195 C 
ATOM      3  C1  IDS d 504     -13.185  48.187 174.498  0.00  0.00     0.294 C 
ATOM      4  O5  IDS d 504     -14.100  47.413 173.716  0.00  0.00    -0.340 OA
ATOM      5  C2  IDS d 504     -13.891  49.311 175.229  0.00  0.00     0.231 C 
ATOM      6  C5  IDS d 504     -14.817  48.158 172.757  0.00  0.00     0.257 C 
ENDROOT
BRANCH   2   7
ATOM      7  O4  IDS d 504     -16.658  48.477 174.291  0.00  0.00    -0.348 OA
BRANCH   7   8
ATOM      8  C1  SGN d 505     -17.941  49.043 174.301  0.00  0.00     0.282 C 
ATOM      9  O5  SGN d 505     -18.796  48.330 173.452  0.00  0.00    -0.349 OA
ATOM     10  C5  SGN d 505     -19.020  47.014 173.857  0.00  0.00     0.181 C 
ATOM     11  C4  SGN d 505     -19.740  46.988 175.166  0.00  0.00     0.186 C 
ATOM     12  C3  SGN d 505     -18.788  47.640 176.211  0.00  0.00     0.173 C 
ATOM     13  C2  SGN d 505     -18.526  49.070 175.700  0.00  0.00     0.157 C 
BRANCH  10  14
ATOM     14  C6  SGN d 505     -19.794  46.364 172.757  0.00  0.00     0.227 C 
BRANCH  14  15
ATOM     15  O6  SGN d 505     -18.844  45.978 171.823  0.00  0.00    -0.254 OA
BRANCH  15  16
ATOM     16  S2  SGN d 505     -18.629  44.585 171.249  0.00  0.00     0.251 S 
ATOM     17  O5S SGN d 505     -19.947  44.144 170.867  0.00  0.00    -0.572 OA
ATOM     18  O4S SGN d 505     -18.033  43.831 172.328  0.00  0.00    -0.572 OA
ATOM     19  O6S SGN d 505     -17.738  44.732 170.106  0.00  0.00    -0.572 OA
ENDBRANCH  15  16
ENDBRANCH  14  15
ENDBRANCH  10  14
BRANCH  11  20
ATOM     20  O4  SGN d 505     -20.065  45.633 175.400  0.00  0.00    -0.348 OA
BRANCH  20  21
ATOM     21  C1  IDS d 506     -20.855  45.206 176.455  0.00  0.00     0.294 C 
ATOM     22  C2  IDS d 506     -21.430  43.822 176.117  0.00  0.00     0.231 C 
ATOM     23  C3  IDS d 506     -22.588  43.390 177.059  0.00  0.00     0.185 C 
ATOM     24  C4  IDS d 506     -23.523  44.549 177.465  0.00  0.00     0.189 C 
ATOM     25  C5  IDS d 506     -22.724  45.835 177.698  0.00  0.00     0.256 C 
ATOM     26  O5  IDS d 506     -21.924  46.107 176.595  0.00  0.00    -0.340 OA
BRANCH  22  27
ATOM     27  O2  IDS d 506     -21.949  43.820 174.802  0.00  0.00    -0.244 OA
BRANCH  27  28
ATOM     28  S   IDS d 506     -22.611  42.614 174.007  0.00  0.00     0.252 S 
ATOM     29  O1S IDS d 506     -21.984  41.438 174.527  0.00  0.00    -0.572 OA
ATOM     30  O2S IDS d 506     -24.019  42.614 174.287  0.00  0.00    -0.572 OA
ATOM     31  O3S IDS d 506     -22.305  42.854 172.613  0.00  0.00    -0.572 OA
ENDBRANCH  27  28
ENDBRANCH  22  27
BRANCH  23  32
ATOM     32  O3  IDS d 506     -22.024  42.827 178.240  0.00  0.00    -0.390 OA
ATOM     33  H   IDS d 506     -21.955  41.865 178.139  0.00  0.00     0.210 HD
ENDBRANCH  23  32
BRANCH  24  34
ATOM     34  O4  IDS d 506     -24.435  44.740 176.409  0.00  0.00    -0.390 OA
ATOM     35  H   IDS d 506     -24.338  44.022 175.764  0.00  0.00     0.210 HD
ENDBRANCH  24  34
BRANCH  25  36
ATOM     36  C6  IDS d 506     -23.522  47.075 178.059  0.00  0.00     0.206 C 
ATOM     37  O62 IDS d 506     -23.113  48.198 177.822  0.00  0.00    -0.646 OA
ATOM     38  O61 IDS d 506     -24.618  46.963 178.590  0.00  0.00    -0.646 OA
ENDBRANCH  25  36
ENDBRANCH  20  21
ENDBRANCH  11  20
BRANCH  12  39
ATOM     39  O3  SGN d 505     -19.422  47.723 177.480  0.00  0.00    -0.391 OA
ATOM     40  H   SGN d 505     -19.747  48.627 177.621  0.00  0.00     0.210 HD
ENDBRANCH  12  39
BRANCH  13  41
ATOM     41  N   SGN d 505     -17.671  49.908 176.572  0.00  0.00    -0.210 NA
ATOM     42  H   SGN d 505     -16.728  49.889 176.185  0.00  0.00     0.140 HD
BRANCH  41  43
ATOM     43  S1  SGN d 505     -18.102  51.517 176.763  0.00  0.00     0.156 S 
BRANCH  43  44
ATOM     44  O3S SGN d 505     -17.387  52.006 177.888  0.00  0.00    -0.296 OA
ATOM     45  H   SGN d 505     -17.561  51.436 178.653  0.00  0.00     0.231 HD
ENDBRANCH  43  44
BRANCH  43  46
ATOM     46  O1S SGN d 505     -17.767  52.208 175.535  0.00  0.00    -0.296 OA
ATOM     47  H   SGN d 505     -18.224  51.786 174.792  0.00  0.00     0.231 HD
ENDBRANCH  43  46
BRANCH  43  48
ATOM     48  O2S SGN d 505     -19.524  51.494 177.012  0.00  0.00    -0.296 OA
ATOM     49  H   SGN d 505     -19.973  52.079 176.382  0.00  0.00     0.231 HD
ENDBRANCH  43  48
ENDBRANCH  41  43
ENDBRANCH  13  41
ENDBRANCH   7   8
ENDBRANCH   2   7
BRANCH   1  50
ATOM     50  O3  IDS d 504     -14.158  50.923 173.400  0.00  0.00    -0.390 OA
ATOM     51  H   IDS d 504     -14.235  51.850 173.676  0.00  0.00     0.210 HD
ENDBRANCH   1  50
BRANCH   6  52
ATOM     52  C6  IDS d 504     -15.513  47.218 171.758  0.00  0.00     0.206 C 
ATOM     53  O62 IDS d 504     -16.321  47.651 170.934  0.00  0.00    -0.646 OA
ATOM     54  O61 IDS d 504     -15.294  46.014 171.769  0.00  0.00    -0.646 OA
ENDBRANCH   6  52
BRANCH   5  55
ATOM     55  O2  IDS d 504     -14.583  48.754 176.345  0.00  0.00    -0.244 OA
BRANCH  55  56
ATOM     56  S   IDS d 504     -14.324  49.059 177.832  0.00  0.00     0.252 S 
ATOM     57  O2S IDS d 504     -14.844  47.962 178.596  0.00  0.00    -0.572 OA
ATOM     58  O3S IDS d 504     -12.920  49.220 177.901  0.00  0.00    -0.572 OA
ATOM     59  O1S IDS d 504     -15.010  50.265 178.119  0.00  0.00    -0.572 OA
ENDBRANCH  55  56
ENDBRANCH   5  55
BRANCH   3  60
ATOM     60  O4  SGN d 503     -12.157  48.741 173.728  0.00  0.00    -0.348 OA
BRANCH  60  61
ATOM     61  C4  SGN d 503     -11.213  47.816 173.295  0.00  0.00     0.186 C 
ATOM     62  C5  SGN d 503      -9.993  47.882 174.230  0.00  0.00     0.181 C 
ATOM     63  O5  SGN d 503      -8.971  47.049 173.778  0.00  0.00    -0.349 OA
ATOM     64  C1  SGN d 503      -8.485  47.402 172.506  0.00  0.00     0.282 C 
ATOM     65  C2  SGN d 503      -9.622  47.306 171.478  0.00  0.00     0.157 C 
ATOM     66  C3  SGN d 503     -10.803  48.175 171.869  0.00  0.00     0.173 C 
BRANCH  62  67
ATOM     67  C6  SGN d 503     -10.261  47.423 175.637  0.00  0.00     0.227 C 
BRANCH  67  68
ATOM     68  O6  SGN d 503     -10.352  46.015 175.615  0.00  0.00    -0.254 OA
BRANCH  68  69
ATOM     69  S2  SGN d 503     -11.533  45.177 176.173  0.00  0.00     0.251 S 
ATOM     70  O6S SGN d 503     -12.256  44.806 175.020  0.00  0.00    -0.572 OA
ATOM     71  O4S SGN d 503     -10.999  44.021 176.809  0.00  0.00    -0.572 OA
ATOM     72  O5S SGN d 503     -12.257  46.030 177.110  0.00  0.00    -0.572 OA
ENDBRANCH  68  69
ENDBRANCH  67  68
ENDBRANCH  62  67
BRANCH  64  73
ATOM     73  O4  IDS d 502      -7.920  48.684 172.511  0.00  0.00    -0.348 OA
BRANCH  73  74
ATOM     74  C4  IDS d 502      -6.671  48.775 173.147  0.00  0.00     0.195 C 
ATOM     75  C3  IDS d 502      -5.553  48.436 172.143  0.00  0.00     0.185 C 
ATOM     76  C2  IDS d 502      -5.410  49.538 171.090  0.00  0.00     0.231 C 
ATOM     77  C1  IDS d 502      -5.355  50.925 171.721  0.00  0.00     0.291 C 
ATOM     78  O5  IDS d 502      -6.418  51.121 172.619  0.00  0.00    -0.340 OA
ATOM     79  C5  IDS d 502      -6.475  50.191 173.683  0.00  0.00     0.257 C 
BRANCH  75  80
ATOM     80  O3  IDS d 502      -4.326  48.333 172.840  0.00  0.00    -0.390 OA
ATOM     81  H   IDS d 502      -3.728  49.037 172.545  0.00  0.00     0.210 HD
ENDBRANCH  75  80
BRANCH  76  82
ATOM     82  O2  IDS d 502      -6.546  49.479 170.268  0.00  0.00    -0.244 OA
BRANCH  82  83
ATOM     83  S   IDS d 502      -6.628  49.740 168.728  0.00  0.00     0.252 S 
ATOM     84  O3S IDS d 502      -5.910  48.644 168.131  0.00  0.00    -0.572 OA
ATOM     85  O2S IDS d 502      -6.011  51.028 168.513  0.00  0.00    -0.572 OA
ATOM     86  O1S IDS d 502      -8.019  49.734 168.369  0.00  0.00    -0.572 OA
ENDBRANCH  82  83
ENDBRANCH  76  82
BRANCH  77  87
ATOM     87  O1  IDS d 502      -4.100  51.071 172.332  0.00  0.00    -0.368 OA
ATOM     88  H   IDS d 502      -4.097  51.874 172.877  0.00  0.00     0.212 HD
ENDBRANCH  77  87
BRANCH  79  89
ATOM     89  C6  IDS d 502      -7.510  50.617 174.715  0.00  0.00     0.206 C 
ATOM     90  O61 IDS d 502      -7.630  50.028 175.761  0.00  0.00    -0.646 OA
ATOM     91  O62 IDS d 502      -8.241  51.568 174.514  0.00  0.00    -0.646 OA
ENDBRANCH  79  89
ENDBRANCH  73  74
ENDBRANCH  64  73
BRANCH  65  92
ATOM     92  N   SGN d 503      -9.135  47.639 170.151  0.00  0.00    -0.210 NA
ATOM     93  H   SGN d 503      -8.441  48.379 170.256  0.00  0.00     0.140 HD
BRANCH  92  94
ATOM     94  S1  SGN d 503      -8.450  46.448 169.279  0.00  0.00     0.156 S 
BRANCH  94  95
ATOM     95  O2S SGN d 503      -7.044  46.347 169.670  0.00  0.00    -0.296 OA
ATOM     96  H   SGN d 503      -6.593  45.713 169.092  0.00  0.00     0.231 HD
ENDBRANCH  94  95
BRANCH  94  97
ATOM     97  O1S SGN d 503      -8.602  46.826 167.887  0.00  0.00    -0.296 OA
ATOM     98  H   SGN d 503      -8.626  47.793 167.816  0.00  0.00     0.231 HD
ENDBRANCH  94  97
BRANCH  94  99
ATOM     99  O3S SGN d 503      -9.238  45.287 169.627  0.00  0.00    -0.296 OA
ATOM    100  H   SGN d 503      -8.864  44.867 170.416  0.00  0.00     0.231 HD
ENDBRANCH  94  99
ENDBRANCH  92  94
ENDBRANCH  65  92
BRANCH  66 101
ATOM    101  O3  SGN d 503     -11.900  47.908 171.015  0.00  0.00    -0.391 OA
ATOM    102  H   SGN d 503     -12.716  48.230 171.428  0.00  0.00     0.210 HD
ENDBRANCH  66 101
ENDBRANCH  60  61
ENDBRANCH   3  60
TORSDOF 40
ENDMDL
MODEL 93
REMARK VINA RESULT:      -1.2      2.731     13.446
REMARK WARNING: 32 MAX_TORS EXCEEDED!!!
REMARK  40 active torsions:
REMARK  status: ('A' for Active; 'I' for Inactive)
REMARK    1 I    between atoms: C6_1  and  C5_8 
REMARK    2 I    between atoms: C6_1  and  O6_57 
REMARK    3 I    between atoms: O4_2  and  C4_49 
REMARK    4 I    between atoms: O6_3  and  C6_7 
REMARK    5 I    between atoms: O6_3  and  S2_58 
REMARK    6 I    between atoms: S_4  and  O2_6 
REMARK    7 I    between atoms: O3_5  and  C3_81 
REMARK    8 I    between atoms: O2_6  and  C2_11 
REMARK    9 I    between atoms: C6_7  and  C5_54 
REMARK   10 I    between atoms: O4_9  and  C4_32 
REMARK   11 I    between atoms: O4_9  and  C1_39 
REMARK   12 I    between atoms: O3_12  and  C3_18 
REMARK   13 I    between atoms: N_13  and  C2_52 
REMARK   14 I    between atoms: N_13  and  S1_45 
REMARK   15 I    between atoms: O3_17  and  C3_83 
REMARK   16 I    between atoms: C4_20  and  O4_44 
REMARK   17 I    between atoms: N_21  and  C2_66 
REMARK   18 I    between atoms: N_21  and  S1_53 
REMARK   19 I    between atoms: O3_22  and  C3_65 
REMARK   20 I    between atoms: C4_23  and  O4_74 
REMARK   21 I    between atoms: C1_25  and  O1_72 
REMARK   22 I    between atoms: C2_28  and  O2_69 
REMARK   23 I    between atoms: C4_33  and  O4_61 
REMARK   24 I    between atoms: O2S_34  and  S1_45 
REMARK   25 I    between atoms: C6_37  and  C5_47 
REMARK   26 I    between atoms: O2_38  and  C2_77 
REMARK   27 I    between atoms: O2_38  and  S_50 
REMARK   28 I    between atoms: O3S_40  and  S1_53 
REMARK   29 I    between atoms: O1S_42  and  S1_45 
REMARK   30 I    between atoms: O1S_43  and  S1_53 
REMARK   31 I    between atoms: O4_44  and  C1_46 
REMARK   32 I    between atoms: S1_45  and  O3S_60 
REMARK   33 I    between atoms: C6_48  and  C5_84 
REMARK   34 I    between atoms: C6_51  and  C5_87 
REMARK   35 I    between atoms: S1_53  and  O2S_55 
REMARK   36 I    between atoms: C1_56  and  O4_74 
REMARK   37 I    between atoms: O6_57  and  S2_82 
REMARK   38 I    between atoms: O4_61  and  C1_70 
REMARK   39 I    between atoms: C3_63  and  O3_79 
REMARK   40 I    between atoms: O2_69  and  S_76 
ROOT
ATOM      1  C3  IDS d 504     -14.589  46.745 173.703  0.00  0.00     0.185 C 
ATOM      2  C4  IDS d 504     -14.536  48.146 174.293  0.00  0.00     0.195 C 
ATOM      3  C1  IDS d 504     -13.129  47.632 171.782  0.00  0.00     0.294 C 
ATOM      4  O5  IDS d 504     -13.194  48.901 172.442  0.00  0.00    -0.340 OA
ATOM      5  C2  IDS d 504     -14.306  46.752 172.152  0.00  0.00     0.231 C 
ATOM      6  C5  IDS d 504     -13.240  48.821 173.848  0.00  0.00     0.257 C 
ENDROOT
BRANCH   2   7
ATOM      7  O4  IDS d 504     -15.656  48.890 173.837  0.00  0.00    -0.348 OA
BRANCH   7   8
ATOM      8  C1  SGN d 505     -16.810  48.710 174.612  0.00  0.00     0.282 C 
ATOM      9  O5  SGN d 505     -16.784  49.553 175.729  0.00  0.00    -0.349 OA
ATOM     10  C5  SGN d 505     -16.818  50.910 175.410  0.00  0.00     0.181 C 
ATOM     11  C4  SGN d 505     -18.114  51.256 174.752  0.00  0.00     0.186 C 
ATOM     12  C3  SGN d 505     -18.160  50.462 173.414  0.00  0.00     0.173 C 
ATOM     13  C2  SGN d 505     -18.068  48.976 173.809  0.00  0.00     0.157 C 
BRANCH  10  14
ATOM     14  C6  SGN d 505     -16.604  51.647 176.692  0.00  0.00     0.227 C 
BRANCH  14  15
ATOM     15  O6  SGN d 505     -15.895  50.771 177.501  0.00  0.00    -0.254 OA
BRANCH  15  16
ATOM     16  S2  SGN d 505     -14.746  51.109 178.439  0.00  0.00     0.251 S 
ATOM     17  O5S SGN d 505     -14.071  52.212 177.803  0.00  0.00    -0.572 OA
ATOM     18  O4S SGN d 505     -13.967  49.894 178.518  0.00  0.00    -0.572 OA
ATOM     19  O6S SGN d 505     -15.338  51.480 179.717  0.00  0.00    -0.572 OA
ENDBRANCH  15  16
ENDBRANCH  14  15
ENDBRANCH  10  14
BRANCH  11  20
ATOM     20  O4  SGN d 505     -18.118  52.663 174.626  0.00  0.00    -0.348 OA
BRANCH  20  21
ATOM     21  C1  IDS d 506     -19.211  53.391 174.182  0.00  0.00     0.294 C 
ATOM     22  C2  IDS d 506     -18.868  54.886 174.235  0.00  0.00     0.231 C 
ATOM     23  C3  IDS d 506     -20.110  55.808 174.088  0.00  0.00     0.185 C 
ATOM     24  C4  IDS d 506     -21.372  55.268 174.795  0.00  0.00     0.189 C 
ATOM     25  C5  IDS d 506     -21.467  53.746 174.647  0.00  0.00     0.256 C 
ATOM     26  O5  IDS d 506     -20.282  53.151 175.060  0.00  0.00    -0.340 OA
BRANCH  22  27
ATOM     27  O2  IDS d 506     -18.267  55.204 175.475  0.00  0.00    -0.244 OA
BRANCH  27  28
ATOM     28  S   IDS d 506     -17.623  56.582 175.932  0.00  0.00     0.252 S 
ATOM     29  O1S IDS d 506     -18.698  57.317 176.525  0.00  0.00    -0.572 OA
ATOM     30  O2S IDS d 506     -16.598  56.297 176.897  0.00  0.00    -0.572 OA
ATOM     31  O3S IDS d 506     -17.114  57.192 174.723  0.00  0.00    -0.572 OA
ENDBRANCH  27  28
ENDBRANCH  22  27
BRANCH  23  32
ATOM     32  O3  IDS d 506     -20.399  55.960 172.700  0.00  0.00    -0.390 OA
ATOM     33  H   IDS d 506     -19.572  55.930 172.193  0.00  0.00     0.210 HD
ENDBRANCH  23  32
BRANCH  24  34
ATOM     34  O4  IDS d 506     -21.264  55.607 176.158  0.00  0.00    -0.390 OA
ATOM     35  H   IDS d 506     -21.699  54.927 176.696  0.00  0.00     0.210 HD
ENDBRANCH  24  34
BRANCH  25  36
ATOM     36  C6  IDS d 506     -22.638  53.069 175.336  0.00  0.00     0.206 C 
ATOM     37  O62 IDS d 506     -22.890  51.888 175.171  0.00  0.00    -0.646 OA
ATOM     38  O61 IDS d 506     -23.352  53.708 176.096  0.00  0.00    -0.646 OA
ENDBRANCH  25  36
ENDBRANCH  20  21
ENDBRANCH  11  20
BRANCH  12  39
ATOM     39  O3  SGN d 505     -19.398  50.677 172.749  0.00  0.00    -0.391 OA
ATOM     40  H   SGN d 505     -19.388  50.222 171.892  0.00  0.00     0.210 HD
ENDBRANCH  12  39
BRANCH  13  41
ATOM     41  N   SGN d 505     -18.142  48.015 172.684  0.00  0.00    -0.210 NA
ATOM     42  H   SGN d 505     -17.189  47.845 172.364  0.00  0.00     0.140 HD
BRANCH  41  43
ATOM     43  S1  SGN d 505     -18.844  46.523 172.985  0.00  0.00     0.156 S 
BRANCH  43  44
ATOM     44  O3S SGN d 505     -19.450  46.602 174.267  0.00  0.00    -0.296 OA
ATOM     45  H   SGN d 505     -19.291  47.480 174.646  0.00  0.00     0.231 HD
ENDBRANCH  43  44
BRANCH  43  46
ATOM     46  O1S SGN d 505     -19.795  46.265 171.925  0.00  0.00    -0.296 OA
ATOM     47  H   SGN d 505     -20.682  46.168 172.303  0.00  0.00     0.231 HD
ENDBRANCH  43  46
BRANCH  43  48
ATOM     48  O2S SGN d 505     -17.744  45.587 172.980  0.00  0.00    -0.296 OA
ATOM     49  H   SGN d 505     -16.934  46.041 172.701  0.00  0.00     0.231 HD
ENDBRANCH  43  48
ENDBRANCH  41  43
ENDBRANCH  13  41
ENDBRANCH   7   8
ENDBRANCH   2   7
BRANCH   1  50
ATOM     50  O3  IDS d 504     -13.594  45.975 174.366  0.00  0.00    -0.390 OA
ATOM     51  H   IDS d 504     -12.716  46.326 174.148  0.00  0.00     0.210 HD
ENDBRANCH   1  50
BRANCH   6  52
ATOM     52  C6  IDS d 504     -12.976  50.202 174.473  0.00  0.00     0.206 C 
ATOM     53  O62 IDS d 504     -12.410  50.309 175.563  0.00  0.00    -0.646 OA
ATOM     54  O61 IDS d 504     -13.337  51.227 173.910  0.00  0.00    -0.646 OA
ENDBRANCH   6  52
BRANCH   5  55
ATOM     55  O2  IDS d 504     -15.452  47.214 171.438  0.00  0.00    -0.244 OA
BRANCH  55  56
ATOM     56  S   IDS d 504     -15.870  46.813 170.012  0.00  0.00     0.252 S 
ATOM     57  O2S IDS d 504     -14.958  45.804 169.560  0.00  0.00    -0.572 OA
ATOM     58  O3S IDS d 504     -17.208  46.380 170.166  0.00  0.00    -0.572 OA
ATOM     59  O1S IDS d 504     -15.781  47.988 169.224  0.00  0.00    -0.572 OA
ENDBRANCH  55  56
ENDBRANCH   5  55
BRANCH   3  60
ATOM     60  O4  SGN d 503     -11.951  46.936 172.074  0.00  0.00    -0.348 OA
BRANCH  60  61
ATOM     61  C4  SGN d 503     -11.172  46.649 170.960  0.00  0.00     0.186 C 
ATOM     62  C5  SGN d 503     -10.756  45.169 171.017  0.00  0.00     0.181 C 
ATOM     63  O5  SGN d 503      -9.884  44.853 169.976  0.00  0.00    -0.349 OA
ATOM     64  C1  SGN d 503      -8.681  45.580 170.017  0.00  0.00     0.282 C 
ATOM     65  C2  SGN d 503      -8.983  47.081 169.902  0.00  0.00     0.157 C 
ATOM     66  C3  SGN d 503      -9.935  47.544 170.989  0.00  0.00     0.173 C 
BRANCH  62  67
ATOM     67  C6  SGN d 503     -11.894  44.196 170.865  0.00  0.00     0.227 C 
BRANCH  67  68
ATOM     68  O6  SGN d 503     -12.210  43.708 172.151  0.00  0.00    -0.254 OA
BRANCH  68  69
ATOM     69  S2  SGN d 503     -13.361  42.722 172.485  0.00  0.00     0.251 S 
ATOM     70  O6S SGN d 503     -14.039  43.348 173.553  0.00  0.00    -0.572 OA
ATOM     71  O4S SGN d 503     -14.214  42.630 171.350  0.00  0.00    -0.572 OA
ATOM     72  O5S SGN d 503     -12.744  41.440 172.810  0.00  0.00    -0.572 OA
ENDBRANCH  68  69
ENDBRANCH  67  68
ENDBRANCH  62  67
BRANCH  64  73
ATOM     73  O4  IDS d 502      -7.954  45.303 171.183  0.00  0.00    -0.348 OA
BRANCH  73  74
ATOM     74  C4  IDS d 502      -7.146  44.157 171.114  0.00  0.00     0.195 C 
ATOM     75  C3  IDS d 502      -5.704  44.562 170.754  0.00  0.00     0.185 C 
ATOM     76  C2  IDS d 502      -5.037  45.305 171.915  0.00  0.00     0.231 C 
ATOM     77  C1  IDS d 502      -5.223  44.574 173.240  0.00  0.00     0.291 C 
ATOM     78  O5  IDS d 502      -6.573  44.253 173.462  0.00  0.00    -0.340 OA
ATOM     79  C5  IDS d 502      -7.162  43.442 172.464  0.00  0.00     0.257 C 
BRANCH  75  80
ATOM     80  O3  IDS d 502      -4.951  43.394 170.491  0.00  0.00    -0.390 OA
ATOM     81  H   IDS d 502      -4.643  43.408 169.571  0.00  0.00     0.210 HD
ENDBRANCH  75  80
BRANCH  76  82
ATOM     82  O2  IDS d 502      -5.658  46.558 172.018  0.00  0.00    -0.244 OA
BRANCH  82  83
ATOM     83  S   IDS d 502      -5.010  47.968 171.817  0.00  0.00     0.252 S 
ATOM     84  O3S IDS d 502      -3.875  47.981 172.702  0.00  0.00    -0.572 OA
ATOM     85  O2S IDS d 502      -6.033  48.926 172.167  0.00  0.00    -0.572 OA
ATOM     86  O1S IDS d 502      -4.621  48.064 170.437  0.00  0.00    -0.572 OA
ENDBRANCH  82  83
ENDBRANCH  76  82
BRANCH  77  87
ATOM     87  O1  IDS d 502      -4.394  43.442 173.229  0.00  0.00    -0.368 OA
ATOM     88  H   IDS d 502      -3.466  43.720 173.280  0.00  0.00     0.212 HD
ENDBRANCH  77  87
BRANCH  79  89
ATOM     89  C6  IDS d 502      -8.539  42.964 172.901  0.00  0.00     0.206 C 
ATOM     90  O61 IDS d 502      -9.168  42.176 172.238  0.00  0.00    -0.646 OA
ATOM     91  O62 IDS d 502      -9.040  43.362 173.935  0.00  0.00    -0.646 OA
ENDBRANCH  79  89
ENDBRANCH  73  74
ENDBRANCH  64  73
BRANCH  65  92
ATOM     92  N   SGN d 503      -7.752  47.850 169.913  0.00  0.00    -0.210 NA
ATOM     93  H   SGN d 503      -6.999  47.225 169.625  0.00  0.00     0.140 HD
BRANCH  92  94
ATOM     94  S1  SGN d 503      -7.679  49.169 168.963  0.00  0.00     0.156 S 
BRANCH  94  95
ATOM     95  O2S SGN d 503      -7.695  50.352 169.823  0.00  0.00    -0.296 OA
ATOM     96  H   SGN d 503      -6.809  50.497 170.190  0.00  0.00     0.231 HD
ENDBRANCH  94  95
BRANCH  94  97
ATOM     97  O1S SGN d 503      -8.841  49.109 168.098  0.00  0.00    -0.296 OA
ATOM     98  H   SGN d 503      -8.743  49.755 167.380  0.00  0.00     0.231 HD
ENDBRANCH  94  97
BRANCH  94  99
ATOM     99  O3S SGN d 503      -6.440  48.989 168.240  0.00  0.00    -0.296 OA
ATOM    100  H   SGN d 503      -6.432  49.570 167.464  0.00  0.00     0.231 HD
ENDBRANCH  94  99
ENDBRANCH  92  94
ENDBRANCH  65  92
BRANCH  66 101
ATOM    101  O3  SGN d 503     -10.348  48.873 170.734  0.00  0.00    -0.391 OA
ATOM    102  H   SGN d 503     -10.759  49.243 171.530  0.00  0.00     0.210 HD
ENDBRANCH  66 101
ENDBRANCH  60  61
ENDBRANCH   3  60
TORSDOF 40
ENDMDL
MODEL 94
REMARK VINA RESULT:      -1.1      2.303      3.659
REMARK WARNING: 32 MAX_TORS EXCEEDED!!!
REMARK  40 active torsions:
REMARK  status: ('A' for Active; 'I' for Inactive)
REMARK    1 I    between atoms: C6_1  and  C5_8 
REMARK    2 I    between atoms: C6_1  and  O6_57 
REMARK    3 I    between atoms: O4_2  and  C4_49 
REMARK    4 I    between atoms: O6_3  and  C6_7 
REMARK    5 I    between atoms: O6_3  and  S2_58 
REMARK    6 I    between atoms: S_4  and  O2_6 
REMARK    7 I    between atoms: O3_5  and  C3_81 
REMARK    8 I    between atoms: O2_6  and  C2_11 
REMARK    9 I    between atoms: C6_7  and  C5_54 
REMARK   10 I    between atoms: O4_9  and  C4_32 
REMARK   11 I    between atoms: O4_9  and  C1_39 
REMARK   12 I    between atoms: O3_12  and  C3_18 
REMARK   13 I    between atoms: N_13  and  C2_52 
REMARK   14 I    between atoms: N_13  and  S1_45 
REMARK   15 I    between atoms: O3_17  and  C3_83 
REMARK   16 I    between atoms: C4_20  and  O4_44 
REMARK   17 I    between atoms: N_21  and  C2_66 
REMARK   18 I    between atoms: N_21  and  S1_53 
REMARK   19 I    between atoms: O3_22  and  C3_65 
REMARK   20 I    between atoms: C4_23  and  O4_74 
REMARK   21 I    between atoms: C1_25  and  O1_72 
REMARK   22 I    between atoms: C2_28  and  O2_69 
REMARK   23 I    between atoms: C4_33  and  O4_61 
REMARK   24 I    between atoms: O2S_34  and  S1_45 
REMARK   25 I    between atoms: C6_37  and  C5_47 
REMARK   26 I    between atoms: O2_38  and  C2_77 
REMARK   27 I    between atoms: O2_38  and  S_50 
REMARK   28 I    between atoms: O3S_40  and  S1_53 
REMARK   29 I    between atoms: O1S_42  and  S1_45 
REMARK   30 I    between atoms: O1S_43  and  S1_53 
REMARK   31 I    between atoms: O4_44  and  C1_46 
REMARK   32 I    between atoms: S1_45  and  O3S_60 
REMARK   33 I    between atoms: C6_48  and  C5_84 
REMARK   34 I    between atoms: C6_51  and  C5_87 
REMARK   35 I    between atoms: S1_53  and  O2S_55 
REMARK   36 I    between atoms: C1_56  and  O4_74 
REMARK   37 I    between atoms: O6_57  and  S2_82 
REMARK   38 I    between atoms: O4_61  and  C1_70 
REMARK   39 I    between atoms: C3_63  and  O3_79 
REMARK   40 I    between atoms: O2_69  and  S_76 
ROOT
ATOM      1  C3  IDS d 504     -17.534  50.688 176.542  0.00  0.00     0.185 C 
ATOM      2  C4  IDS d 504     -17.719  49.809 175.315  0.00  0.00     0.195 C 
ATOM      3  C1  IDS d 504     -17.479  52.698 174.940  0.00  0.00     0.294 C 
ATOM      4  O5  IDS d 504     -17.628  51.742 173.884  0.00  0.00    -0.340 OA
ATOM      5  C2  IDS d 504     -16.867  52.070 176.176  0.00  0.00     0.231 C 
ATOM      6  C5  IDS d 504     -18.412  50.621 174.223  0.00  0.00     0.257 C 
ENDROOT
BRANCH   2   7
ATOM      7  O4  IDS d 504     -16.450  49.362 174.861  0.00  0.00    -0.348 OA
BRANCH   7   8
ATOM      8  C1  SGN d 505     -16.040  48.148 175.429  0.00  0.00     0.282 C 
ATOM      9  O5  SGN d 505     -16.191  47.104 174.509  0.00  0.00    -0.349 OA
ATOM     10  C5  SGN d 505     -15.377  47.225 173.383  0.00  0.00     0.181 C 
ATOM     11  C4  SGN d 505     -13.937  47.132 173.769  0.00  0.00     0.186 C 
ATOM     12  C3  SGN d 505     -13.644  48.354 174.689  0.00  0.00     0.173 C 
ATOM     13  C2  SGN d 505     -14.597  48.208 175.891  0.00  0.00     0.157 C 
BRANCH  10  14
ATOM     14  C6  SGN d 505     -15.797  46.140 172.445  0.00  0.00     0.227 C 
BRANCH  14  15
ATOM     15  O6  SGN d 505     -16.849  46.675 171.718  0.00  0.00    -0.254 OA
BRANCH  15  16
ATOM     16  S2  SGN d 505     -16.808  47.212 170.295  0.00  0.00     0.251 S 
ATOM     17  O5S SGN d 505     -16.326  48.564 170.432  0.00  0.00    -0.572 OA
ATOM     18  O4S SGN d 505     -18.169  47.105 169.822  0.00  0.00    -0.572 OA
ATOM     19  O6S SGN d 505     -15.886  46.365 169.550  0.00  0.00    -0.572 OA
ENDBRANCH  15  16
ENDBRANCH  14  15
ENDBRANCH  10  14
BRANCH  11  20
ATOM     20  O4  SGN d 505     -13.215  47.096 172.556  0.00  0.00    -0.348 OA
BRANCH  20  21
ATOM     21  C1  IDS d 506     -12.057  46.354 172.375  0.00  0.00     0.294 C 
ATOM     22  C2  IDS d 506     -11.399  46.774 171.053  0.00  0.00     0.231 C 
ATOM     23  C3  IDS d 506     -10.293  45.792 170.576  0.00  0.00     0.185 C 
ATOM     24  C4  IDS d 506     -10.619  44.309 170.852  0.00  0.00     0.189 C 
ATOM     25  C5  IDS d 506     -11.319  44.150 172.206  0.00  0.00     0.256 C 
ATOM     26  O5  IDS d 506     -12.416  44.999 172.280  0.00  0.00    -0.340 OA
BRANCH  22  27
ATOM     27  O2  IDS d 506     -12.368  46.830 170.024  0.00  0.00    -0.244 OA
BRANCH  27  28
ATOM     28  S   IDS d 506     -12.650  48.013 169.002  0.00  0.00     0.252 S 
ATOM     29  O1S IDS d 506     -11.373  48.336 168.444  0.00  0.00    -0.572 OA
ATOM     30  O2S IDS d 506     -13.546  47.526 167.991  0.00  0.00    -0.572 OA
ATOM     31  O3S IDS d 506     -13.213  49.085 169.795  0.00  0.00    -0.572 OA
ENDBRANCH  27  28
ENDBRANCH  22  27
BRANCH  23  32
ATOM     32  O3  IDS d 506      -9.078  46.121 171.244  0.00  0.00    -0.390 OA
ATOM     33  H   IDS d 506      -8.646  46.858 170.785  0.00  0.00     0.210 HD
ENDBRANCH  23  32
BRANCH  24  34
ATOM     34  O4  IDS d 506     -11.473  43.870 169.822  0.00  0.00    -0.390 OA
ATOM     35  H   IDS d 506     -12.233  43.405 170.207  0.00  0.00     0.210 HD
ENDBRANCH  24  34
BRANCH  25  36
ATOM     36  C6  IDS d 506     -11.743  42.744 172.590  0.00  0.00     0.206 C 
ATOM     37  O62 IDS d 506     -12.440  42.523 173.566  0.00  0.00    -0.646 OA
ATOM     38  O61 IDS d 506     -11.398  41.792 171.904  0.00  0.00    -0.646 OA
ENDBRANCH  25  36
ENDBRANCH  20  21
ENDBRANCH  11  20
BRANCH  12  39
ATOM     39  O3  SGN d 505     -12.305  48.309 175.166  0.00  0.00    -0.391 OA
ATOM     40  H   SGN d 505     -11.741  48.859 174.600  0.00  0.00     0.210 HD
ENDBRANCH  12  39
BRANCH  13  41
ATOM     41  N   SGN d 505     -14.461  49.248 176.937  0.00  0.00    -0.210 NA
ATOM     42  H   SGN d 505     -15.399  49.473 177.268  0.00  0.00     0.140 HD
BRANCH  41  43
ATOM     43  S1  SGN d 505     -13.530  48.877 178.281  0.00  0.00     0.156 S 
BRANCH  43  44
ATOM     44  O3S SGN d 505     -14.048  49.634 179.364  0.00  0.00    -0.296 OA
ATOM     45  H   SGN d 505     -15.007  49.732 179.261  0.00  0.00     0.231 HD
ENDBRANCH  43  44
BRANCH  43  46
ATOM     46  O1S SGN d 505     -13.620  47.448 178.495  0.00  0.00    -0.296 OA
ATOM     47  H   SGN d 505     -13.273  46.983 177.718  0.00  0.00     0.231 HD
ENDBRANCH  43  46
BRANCH  43  48
ATOM     48  O2S SGN d 505     -12.193  49.300 177.935  0.00  0.00    -0.296 OA
ATOM     49  H   SGN d 505     -11.548  48.771 178.430  0.00  0.00     0.231 HD
ENDBRANCH  43  48
ENDBRANCH  41  43
ENDBRANCH  13  41
ENDBRANCH   7   8
ENDBRANCH   2   7
BRANCH   1  50
ATOM     50  O3  IDS d 504     -18.825  50.913 177.094  0.00  0.00    -0.390 OA
ATOM     51  H   IDS d 504     -19.067  51.846 176.979  0.00  0.00     0.210 HD
ENDBRANCH   1  50
BRANCH   6  52
ATOM     52  C6  IDS d 504     -18.791  49.829 172.961  0.00  0.00     0.206 C 
ATOM     53  O62 IDS d 504     -18.823  50.371 171.854  0.00  0.00    -0.646 OA
ATOM     54  O61 IDS d 504     -19.087  48.643 173.028  0.00  0.00    -0.646 OA
ENDBRANCH   6  52
BRANCH   5  55
ATOM     55  O2  IDS d 504     -15.469  51.904 175.949  0.00  0.00    -0.244 OA
BRANCH  55  56
ATOM     56  S   IDS d 504     -14.326  52.645 176.667  0.00  0.00     0.252 S 
ATOM     57  O2S IDS d 504     -14.509  54.049 176.440  0.00  0.00    -0.572 OA
ATOM     58  O3S IDS d 504     -14.460  52.238 178.015  0.00  0.00    -0.572 OA
ATOM     59  O1S IDS d 504     -13.120  52.176 176.089  0.00  0.00    -0.572 OA
ENDBRANCH  55  56
ENDBRANCH   5  55
BRANCH   3  60
ATOM     60  O4  SGN d 503     -18.693  53.289 175.302  0.00  0.00    -0.348 OA
BRANCH  60  61
ATOM     61  C4  SGN d 503     -19.296  54.016 174.282  0.00  0.00     0.186 C 
ATOM     62  C5  SGN d 503     -18.867  55.489 174.406  0.00  0.00     0.181 C 
ATOM     63  O5  SGN d 503     -19.527  56.283 173.470  0.00  0.00    -0.349 OA
ATOM     64  C1  SGN d 503     -20.924  56.287 173.628  0.00  0.00     0.282 C 
ATOM     65  C2  SGN d 503     -21.465  54.860 173.459  0.00  0.00     0.157 C 
ATOM     66  C3  SGN d 503     -20.811  53.895 174.430  0.00  0.00     0.173 C 
BRANCH  62  67
ATOM     67  C6  SGN d 503     -17.406  55.735 174.148  0.00  0.00     0.227 C 
BRANCH  67  68
ATOM     68  O6  SGN d 503     -17.137  55.349 172.818  0.00  0.00    -0.254 OA
BRANCH  68  69
ATOM     69  S2  SGN d 503     -15.731  55.068 172.225  0.00  0.00     0.251 S 
ATOM     70  O6S SGN d 503     -15.645  55.955 171.131  0.00  0.00    -0.572 OA
ATOM     71  O4S SGN d 503     -14.757  55.406 173.206  0.00  0.00    -0.572 OA
ATOM     72  O5S SGN d 503     -15.688  53.651 171.878  0.00  0.00    -0.572 OA
ENDBRANCH  68  69
ENDBRANCH  67  68
ENDBRANCH  62  67
BRANCH  64  73
ATOM     73  O4  IDS d 502     -21.298  56.820 174.869  0.00  0.00    -0.348 OA
BRANCH  73  74
ATOM     74  C4  IDS d 502     -21.821  58.123 174.817  0.00  0.00     0.195 C 
ATOM     75  C3  IDS d 502     -23.355  58.070 174.957  0.00  0.00     0.185 C 
ATOM     76  C2  IDS d 502     -23.762  57.661 176.375  0.00  0.00     0.231 C 
ATOM     77  C1  IDS d 502     -23.014  58.463 177.435  0.00  0.00     0.291 C 
ATOM     78  O5  IDS d 502     -21.627  58.443 177.206  0.00  0.00    -0.340 OA
ATOM     79  C5  IDS d 502     -21.226  58.955 175.951  0.00  0.00     0.257 C 
BRANCH  75  80
ATOM     80  O3  IDS d 502     -23.884  59.356 174.702  0.00  0.00    -0.390 OA
ATOM     81  H   IDS d 502     -23.594  59.657 173.826  0.00  0.00     0.210 HD
ENDBRANCH  75  80
BRANCH  76  82
ATOM     82  O2  IDS d 502     -23.424  56.309 176.533  0.00  0.00    -0.244 OA
BRANCH  82  83
ATOM     83  S   IDS d 502     -24.392  55.083 176.620  0.00  0.00     0.252 S 
ATOM     84  O3S IDS d 502     -24.941  55.142 177.950  0.00  0.00    -0.572 OA
ATOM     85  O2S IDS d 502     -23.574  53.917 176.378  0.00  0.00    -0.572 OA
ATOM     86  O1S IDS d 502     -25.398  55.263 175.611  0.00  0.00    -0.572 OA
ENDBRANCH  82  83
ENDBRANCH  76  82
BRANCH  77  87
ATOM     87  O1  IDS d 502     -23.541  59.763 177.445  0.00  0.00    -0.368 OA
ATOM     88  H   IDS d 502     -23.187  60.249 178.207  0.00  0.00     0.212 HD
ENDBRANCH  77  87
BRANCH  79  89
ATOM     89  C6  IDS d 502     -19.712  59.103 175.888  0.00  0.00     0.206 C 
ATOM     90  O61 IDS d 502     -19.197  60.040 175.327  0.00  0.00    -0.646 OA
ATOM     91  O62 IDS d 502     -18.981  58.283 176.407  0.00  0.00    -0.646 OA
ENDBRANCH  79  89
ENDBRANCH  73  74
ENDBRANCH  64  73
BRANCH  65  92
ATOM     92  N   SGN d 503     -22.911  54.845 173.590  0.00  0.00    -0.210 NA
ATOM     93  H   SGN d 503     -23.214  55.807 173.739  0.00  0.00     0.140 HD
BRANCH  92  94
ATOM     94  S1  SGN d 503     -23.775  54.250 172.346  0.00  0.00     0.156 S 
BRANCH  94  95
ATOM     95  O2S SGN d 503     -23.468  52.827 172.216  0.00  0.00    -0.296 OA
ATOM     96  H   SGN d 503     -24.240  52.304 172.484  0.00  0.00     0.231 HD
ENDBRANCH  94  95
BRANCH  94  97
ATOM     97  O1S SGN d 503     -23.368  55.004 171.175  0.00  0.00    -0.296 OA
ATOM     98  H   SGN d 503     -22.769  54.464 170.635  0.00  0.00     0.231 HD
ENDBRANCH  94  97
BRANCH  94  99
ATOM     99  O3S SGN d 503     -25.141  54.521 172.731  0.00  0.00    -0.296 OA
ATOM    100  H   SGN d 503     -25.337  55.460 172.588  0.00  0.00     0.231 HD
ENDBRANCH  94  99
ENDBRANCH  92  94
ENDBRANCH  65  92
BRANCH  66 101
ATOM    101  O3  SGN d 503     -21.180  52.567 174.112  0.00  0.00    -0.391 OA
ATOM    102  H   SGN d 503     -20.422  52.106 173.720  0.00  0.00     0.210 HD
ENDBRANCH  66 101
ENDBRANCH  60  61
ENDBRANCH   3  60
TORSDOF 40
ENDMDL
MODEL 95
REMARK VINA RESULT:      -1.0      2.262     12.329
REMARK WARNING: 32 MAX_TORS EXCEEDED!!!
REMARK  40 active torsions:
REMARK  status: ('A' for Active; 'I' for Inactive)
REMARK    1 I    between atoms: C6_1  and  C5_8 
REMARK    2 I    between atoms: C6_1  and  O6_57 
REMARK    3 I    between atoms: O4_2  and  C4_49 
REMARK    4 I    between atoms: O6_3  and  C6_7 
REMARK    5 I    between atoms: O6_3  and  S2_58 
REMARK    6 I    between atoms: S_4  and  O2_6 
REMARK    7 I    between atoms: O3_5  and  C3_81 
REMARK    8 I    between atoms: O2_6  and  C2_11 
REMARK    9 I    between atoms: C6_7  and  C5_54 
REMARK   10 I    between atoms: O4_9  and  C4_32 
REMARK   11 I    between atoms: O4_9  and  C1_39 
REMARK   12 I    between atoms: O3_12  and  C3_18 
REMARK   13 I    between atoms: N_13  and  C2_52 
REMARK   14 I    between atoms: N_13  and  S1_45 
REMARK   15 I    between atoms: O3_17  and  C3_83 
REMARK   16 I    between atoms: C4_20  and  O4_44 
REMARK   17 I    between atoms: N_21  and  C2_66 
REMARK   18 I    between atoms: N_21  and  S1_53 
REMARK   19 I    between atoms: O3_22  and  C3_65 
REMARK   20 I    between atoms: C4_23  and  O4_74 
REMARK   21 I    between atoms: C1_25  and  O1_72 
REMARK   22 I    between atoms: C2_28  and  O2_69 
REMARK   23 I    between atoms: C4_33  and  O4_61 
REMARK   24 I    between atoms: O2S_34  and  S1_45 
REMARK   25 I    between atoms: C6_37  and  C5_47 
REMARK   26 I    between atoms: O2_38  and  C2_77 
REMARK   27 I    between atoms: O2_38  and  S_50 
REMARK   28 I    between atoms: O3S_40  and  S1_53 
REMARK   29 I    between atoms: O1S_42  and  S1_45 
REMARK   30 I    between atoms: O1S_43  and  S1_53 
REMARK   31 I    between atoms: O4_44  and  C1_46 
REMARK   32 I    between atoms: S1_45  and  O3S_60 
REMARK   33 I    between atoms: C6_48  and  C5_84 
REMARK   34 I    between atoms: C6_51  and  C5_87 
REMARK   35 I    between atoms: S1_53  and  O2S_55 
REMARK   36 I    between atoms: C1_56  and  O4_74 
REMARK   37 I    between atoms: O6_57  and  S2_82 
REMARK   38 I    between atoms: O4_61  and  C1_70 
REMARK   39 I    between atoms: C3_63  and  O3_79 
REMARK   40 I    between atoms: O2_69  and  S_76 
ROOT
ATOM      1  C3  IDS d 504     -13.751  51.708 175.194  0.00  0.00     0.185 C 
ATOM      2  C4  IDS d 504     -14.828  51.685 174.120  0.00  0.00     0.195 C 
ATOM      3  C1  IDS d 504     -13.496  49.177 174.816  0.00  0.00     0.294 C 
ATOM      4  O5  IDS d 504     -14.544  49.310 173.851  0.00  0.00    -0.340 OA
ATOM      5  C2  IDS d 504     -13.547  50.287 175.847  0.00  0.00     0.231 C 
ATOM      6  C5  IDS d 504     -14.541  50.536 173.155  0.00  0.00     0.257 C 
ENDROOT
BRANCH   2   7
ATOM      7  O4  IDS d 504     -16.097  51.505 174.731  0.00  0.00    -0.348 OA
BRANCH   7   8
ATOM      8  C1  SGN d 505     -16.363  52.415 175.763  0.00  0.00     0.282 C 
ATOM      9  O5  SGN d 505     -16.308  53.728 175.283  0.00  0.00    -0.349 OA
ATOM     10  C5  SGN d 505     -17.289  54.021 174.335  0.00  0.00     0.181 C 
ATOM     11  C4  SGN d 505     -18.648  53.939 174.950  0.00  0.00     0.186 C 
ATOM     12  C3  SGN d 505     -18.850  52.459 175.387  0.00  0.00     0.173 C 
ATOM     13  C2  SGN d 505     -17.720  52.164 176.392  0.00  0.00     0.157 C 
BRANCH  10  14
ATOM     14  C6  SGN d 505     -16.971  55.383 173.810  0.00  0.00     0.227 C 
BRANCH  14  15
ATOM     15  O6  SGN d 505     -15.819  55.770 174.478  0.00  0.00    -0.254 OA
BRANCH  15  16
ATOM     16  S2  SGN d 505     -15.624  57.014 175.333  0.00  0.00     0.251 S 
ATOM     17  O5S SGN d 505     -16.206  58.081 174.557  0.00  0.00    -0.572 OA
ATOM     18  O4S SGN d 505     -14.194  57.115 175.513  0.00  0.00    -0.572 OA
ATOM     19  O6S SGN d 505     -16.334  56.784 176.584  0.00  0.00    -0.572 OA
ENDBRANCH  15  16
ENDBRANCH  14  15
ENDBRANCH  10  14
BRANCH  11  20
ATOM     20  O4  SGN d 505     -19.545  54.411 173.966  0.00  0.00    -0.348 OA
BRANCH  20  21
ATOM     21  C1  IDS d 506     -20.817  54.882 174.251  0.00  0.00     0.294 C 
ATOM     22  C2  IDS d 506     -21.458  55.399 172.955  0.00  0.00     0.231 C 
ATOM     23  C3  IDS d 506     -22.734  56.251 173.196  0.00  0.00     0.185 C 
ATOM     24  C4  IDS d 506     -22.649  57.157 174.443  0.00  0.00     0.189 C 
ATOM     25  C5  IDS d 506     -21.922  56.441 175.586  0.00  0.00     0.256 C 
ATOM     26  O5  IDS d 506     -20.696  55.959 175.144  0.00  0.00    -0.340 OA
BRANCH  22  27
ATOM     27  O2  IDS d 506     -20.544  56.219 172.254  0.00  0.00    -0.244 OA
BRANCH  27  28
ATOM     28  S   IDS d 506     -20.031  56.067 170.758  0.00  0.00     0.252 S 
ATOM     29  O1S IDS d 506     -21.203  55.776 169.991  0.00  0.00    -0.572 OA
ATOM     30  O2S IDS d 506     -19.448  57.316 170.356  0.00  0.00    -0.572 OA
ATOM     31  O3S IDS d 506     -19.081  54.976 170.783  0.00  0.00    -0.572 OA
ENDBRANCH  27  28
ENDBRANCH  22  27
BRANCH  23  32
ATOM     32  O3  IDS d 506     -23.844  55.370 173.352  0.00  0.00    -0.390 OA
ATOM     33  H   IDS d 506     -23.875  54.755 172.602  0.00  0.00     0.210 HD
ENDBRANCH  23  32
BRANCH  24  34
ATOM     34  O4  IDS d 506     -21.931  58.311 174.073  0.00  0.00    -0.390 OA
ATOM     35  H   IDS d 506     -22.481  59.096 174.223  0.00  0.00     0.210 HD
ENDBRANCH  24  34
BRANCH  25  36
ATOM     36  C6  IDS d 506     -21.721  57.232 176.865  0.00  0.00     0.206 C 
ATOM     37  O62 IDS d 506     -22.091  56.814 177.949  0.00  0.00    -0.646 OA
ATOM     38  O61 IDS d 506     -21.160  58.318 176.830  0.00  0.00    -0.646 OA
ENDBRANCH  25  36
ENDBRANCH  20  21
ENDBRANCH  11  20
BRANCH  12  39
ATOM     39  O3  SGN d 505     -20.097  52.301 176.052  0.00  0.00    -0.391 OA
ATOM     40  H   SGN d 505     -20.539  51.501 175.725  0.00  0.00     0.210 HD
ENDBRANCH  12  39
BRANCH  13  41
ATOM     41  N   SGN d 505     -17.739  50.808 176.988  0.00  0.00    -0.210 NA
ATOM     42  H   SGN d 505     -18.431  50.813 177.737  0.00  0.00     0.140 HD
BRANCH  41  43
ATOM     43  S1  SGN d 505     -18.105  49.523 175.976  0.00  0.00     0.156 S 
BRANCH  43  44
ATOM     44  O3S SGN d 505     -19.108  48.757 176.626  0.00  0.00    -0.296 OA
ATOM     45  H   SGN d 505     -19.006  47.822 176.387  0.00  0.00     0.231 HD
ENDBRANCH  43  44
BRANCH  43  46
ATOM     46  O1S SGN d 505     -18.545  50.074 174.711  0.00  0.00    -0.296 OA
ATOM     47  H   SGN d 505     -19.481  50.319 174.774  0.00  0.00     0.231 HD
ENDBRANCH  43  46
BRANCH  43  48
ATOM     48  O2S SGN d 505     -16.872  48.781 175.855  0.00  0.00    -0.296 OA
ATOM     49  H   SGN d 505     -16.181  49.359 175.495  0.00  0.00     0.231 HD
ENDBRANCH  43  48
ENDBRANCH  41  43
ENDBRANCH  13  41
ENDBRANCH   7   8
ENDBRANCH   2   7
BRANCH   1  50
ATOM     50  O3  IDS d 504     -12.544  52.122 174.567  0.00  0.00    -0.390 OA
ATOM     51  H   IDS d 504     -12.445  53.083 174.660  0.00  0.00     0.210 HD
ENDBRANCH   1  50
BRANCH   6  52
ATOM     52  C6  IDS d 504     -15.471  50.462 171.933  0.00  0.00     0.206 C 
ATOM     53  O62 IDS d 504     -15.086  50.819 170.817  0.00  0.00    -0.646 OA
ATOM     54  O61 IDS d 504     -16.624  50.065 172.041  0.00  0.00    -0.646 OA
ENDBRANCH   6  52
BRANCH   5  55
ATOM     55  O2  IDS d 504     -14.605  50.001 176.760  0.00  0.00    -0.244 OA
BRANCH  55  56
ATOM     56  S   IDS d 504     -14.460  49.583 178.235  0.00  0.00     0.252 S 
ATOM     57  O2S IDS d 504     -15.012  50.633 179.040  0.00  0.00    -0.572 OA
ATOM     58  O3S IDS d 504     -15.155  48.353 178.303  0.00  0.00    -0.572 OA
ATOM     59  O1S IDS d 504     -13.072  49.421 178.470  0.00  0.00    -0.572 OA
ENDBRANCH  55  56
ENDBRANCH   5  55
BRANCH   3  60
ATOM     60  O4  SGN d 503     -12.226  49.179 174.232  0.00  0.00    -0.348 OA
BRANCH  60  61
ATOM     61  C4  SGN d 503     -11.699  47.910 174.017  0.00  0.00     0.186 C 
ATOM     62  C5  SGN d 503     -10.180  47.959 174.259  0.00  0.00     0.181 C 
ATOM     63  O5  SGN d 503      -9.585  46.736 173.955  0.00  0.00    -0.349 OA
ATOM     64  C1  SGN d 503      -9.736  46.362 172.608  0.00  0.00     0.282 C 
ATOM     65  C2  SGN d 503     -11.229  46.223 172.278  0.00  0.00     0.157 C 
ATOM     66  C3  SGN d 503     -11.989  47.502 172.575  0.00  0.00     0.173 C 
BRANCH  62  67
ATOM     67  C6  SGN d 503      -9.785  48.229 175.686  0.00  0.00     0.227 C 
BRANCH  67  68
ATOM     68  O6  SGN d 503      -8.682  49.108 175.663  0.00  0.00    -0.254 OA
BRANCH  68  69
ATOM     69  S2  SGN d 503      -8.759  50.655 175.755  0.00  0.00     0.251 S 
ATOM     70  O6S SGN d 503      -8.357  51.088 174.473  0.00  0.00    -0.572 OA
ATOM     71  O4S SGN d 503     -10.114  51.022 175.993  0.00  0.00    -0.572 OA
ATOM     72  O5S SGN d 503      -7.883  51.063 176.849  0.00  0.00    -0.572 OA
ENDBRANCH  68  69
ENDBRANCH  67  68
ENDBRANCH  62  67
BRANCH  64  73
ATOM     73  O4  IDS d 502      -9.116  47.279 171.749  0.00  0.00    -0.348 OA
BRANCH  73  74
ATOM     74  C4  IDS d 502      -7.906  46.837 171.190  0.00  0.00     0.195 C 
ATOM     75  C3  IDS d 502      -8.188  46.081 169.878  0.00  0.00     0.185 C 
ATOM     76  C2  IDS d 502      -8.667  47.040 168.784  0.00  0.00     0.231 C 
ATOM     77  C1  IDS d 502      -7.774  48.272 168.677  0.00  0.00     0.291 C 
ATOM     78  O5  IDS d 502      -7.584  48.877 169.931  0.00  0.00    -0.340 OA
ATOM     79  C5  IDS d 502      -7.006  48.040 170.912  0.00  0.00     0.257 C 
BRANCH  75  80
ATOM     80  O3  IDS d 502      -6.992  45.471 169.433  0.00  0.00    -0.390 OA
ATOM     81  H   IDS d 502      -6.494  45.142 170.198  0.00  0.00     0.210 HD
ENDBRANCH  75  80
BRANCH  76  82
ATOM     82  O2  IDS d 502      -9.955  47.466 169.139  0.00  0.00    -0.244 OA
BRANCH  82  83
ATOM     83  S   IDS d 502     -10.968  48.280 168.269  0.00  0.00     0.252 S 
ATOM     84  O3S IDS d 502     -12.247  47.668 168.524  0.00  0.00    -0.572 OA
ATOM     85  O2S IDS d 502     -10.518  48.139 166.904  0.00  0.00    -0.572 OA
ATOM     86  O1S IDS d 502     -10.922  49.642 168.721  0.00  0.00    -0.572 OA
ENDBRANCH  82  83
ENDBRANCH  76  82
BRANCH  77  87
ATOM     87  O1  IDS d 502      -6.567  47.878 168.079  0.00  0.00    -0.368 OA
ATOM     88  H   IDS d 502      -6.176  47.151 168.590  0.00  0.00     0.212 HD
ENDBRANCH  77  87
BRANCH  79  89
ATOM     89  C6  IDS d 502      -6.633  48.840 172.152  0.00  0.00     0.206 C 
ATOM     90  O61 IDS d 502      -6.450  50.032 172.096  0.00  0.00    -0.646 OA
ATOM     91  O62 IDS d 502      -6.515  48.300 173.234  0.00  0.00    -0.646 OA
ENDBRANCH  79  89
ENDBRANCH  73  74
ENDBRANCH  64  73
BRANCH  65  92
ATOM     92  N   SGN d 503     -11.408  45.809 170.898  0.00  0.00    -0.210 NA
ATOM     93  H   SGN d 503     -10.498  45.510 170.548  0.00  0.00     0.140 HD
BRANCH  92  94
ATOM     94  S1  SGN d 503     -12.461  44.604 170.603  0.00  0.00     0.156 S 
BRANCH  94  95
ATOM     95  O2S SGN d 503     -13.114  44.250 171.863  0.00  0.00    -0.296 OA
ATOM     96  H   SGN d 503     -12.441  44.119 172.549  0.00  0.00     0.231 HD
ENDBRANCH  94  95
BRANCH  94  97
ATOM     97  O1S SGN d 503     -11.680  43.505 170.067  0.00  0.00    -0.296 OA
ATOM     98  H   SGN d 503     -10.757  43.785 169.966  0.00  0.00     0.231 HD
ENDBRANCH  94  97
BRANCH  94  99
ATOM     99  O3S SGN d 503     -13.355  45.178 169.623  0.00  0.00    -0.296 OA
ATOM    100  H   SGN d 503     -13.170  44.792 168.752  0.00  0.00     0.231 HD
ENDBRANCH  94  99
ENDBRANCH  92  94
ENDBRANCH  65  92
BRANCH  66 101
ATOM    101  O3  SGN d 503     -13.380  47.275 172.453  0.00  0.00    -0.391 OA
ATOM    102  H   SGN d 503     -13.849  47.754 173.154  0.00  0.00     0.210 HD
ENDBRANCH  66 101
ENDBRANCH  60  61
ENDBRANCH   3  60
TORSDOF 40
ENDMDL
MODEL 96
REMARK VINA RESULT:      -1.0      1.899      3.548
REMARK WARNING: 32 MAX_TORS EXCEEDED!!!
REMARK  40 active torsions:
REMARK  status: ('A' for Active; 'I' for Inactive)
REMARK    1 I    between atoms: C6_1  and  C5_8 
REMARK    2 I    between atoms: C6_1  and  O6_57 
REMARK    3 I    between atoms: O4_2  and  C4_49 
REMARK    4 I    between atoms: O6_3  and  C6_7 
REMARK    5 I    between atoms: O6_3  and  S2_58 
REMARK    6 I    between atoms: S_4  and  O2_6 
REMARK    7 I    between atoms: O3_5  and  C3_81 
REMARK    8 I    between atoms: O2_6  and  C2_11 
REMARK    9 I    between atoms: C6_7  and  C5_54 
REMARK   10 I    between atoms: O4_9  and  C4_32 
REMARK   11 I    between atoms: O4_9  and  C1_39 
REMARK   12 I    between atoms: O3_12  and  C3_18 
REMARK   13 I    between atoms: N_13  and  C2_52 
REMARK   14 I    between atoms: N_13  and  S1_45 
REMARK   15 I    between atoms: O3_17  and  C3_83 
REMARK   16 I    between atoms: C4_20  and  O4_44 
REMARK   17 I    between atoms: N_21  and  C2_66 
REMARK   18 I    between atoms: N_21  and  S1_53 
REMARK   19 I    between atoms: O3_22  and  C3_65 
REMARK   20 I    between atoms: C4_23  and  O4_74 
REMARK   21 I    between atoms: C1_25  and  O1_72 
REMARK   22 I    between atoms: C2_28  and  O2_69 
REMARK   23 I    between atoms: C4_33  and  O4_61 
REMARK   24 I    between atoms: O2S_34  and  S1_45 
REMARK   25 I    between atoms: C6_37  and  C5_47 
REMARK   26 I    between atoms: O2_38  and  C2_77 
REMARK   27 I    between atoms: O2_38  and  S_50 
REMARK   28 I    between atoms: O3S_40  and  S1_53 
REMARK   29 I    between atoms: O1S_42  and  S1_45 
REMARK   30 I    between atoms: O1S_43  and  S1_53 
REMARK   31 I    between atoms: O4_44  and  C1_46 
REMARK   32 I    between atoms: S1_45  and  O3S_60 
REMARK   33 I    between atoms: C6_48  and  C5_84 
REMARK   34 I    between atoms: C6_51  and  C5_87 
REMARK   35 I    between atoms: S1_53  and  O2S_55 
REMARK   36 I    between atoms: C1_56  and  O4_74 
REMARK   37 I    between atoms: O6_57  and  S2_82 
REMARK   38 I    between atoms: O4_61  and  C1_70 
REMARK   39 I    between atoms: C3_63  and  O3_79 
REMARK   40 I    between atoms: O2_69  and  S_76 
ROOT
ATOM      1  C3  IDS d 504     -16.748  49.610 175.215  0.00  0.00     0.185 C 
ATOM      2  C4  IDS d 504     -15.987  49.293 173.937  0.00  0.00     0.195 C 
ATOM      3  C1  IDS d 504     -16.790  52.059 174.436  0.00  0.00     0.294 C 
ATOM      4  O5  IDS d 504     -16.047  51.613 173.297  0.00  0.00    -0.340 OA
ATOM      5  C2  IDS d 504     -16.609  51.128 175.618  0.00  0.00     0.231 C 
ATOM      6  C5  IDS d 504     -16.372  50.311 172.866  0.00  0.00     0.257 C 
ENDROOT
BRANCH   2   7
ATOM      7  O4  IDS d 504     -14.592  49.358 174.193  0.00  0.00    -0.348 OA
BRANCH   7   8
ATOM      8  C1  SGN d 505     -14.039  48.147 174.634  0.00  0.00     0.282 C 
ATOM      9  O5  SGN d 505     -13.787  47.302 173.547  0.00  0.00    -0.349 OA
ATOM     10  C5  SGN d 505     -12.825  47.794 172.664  0.00  0.00     0.181 C 
ATOM     11  C4  SGN d 505     -11.496  47.884 173.342  0.00  0.00     0.186 C 
ATOM     12  C3  SGN d 505     -11.651  48.925 174.488  0.00  0.00     0.173 C 
ATOM     13  C2  SGN d 505     -12.755  48.369 175.409  0.00  0.00     0.157 C 
BRANCH  10  14
ATOM     14  C6  SGN d 505     -12.817  46.866 171.493  0.00  0.00     0.227 C 
BRANCH  14  15
ATOM     15  O6  SGN d 505     -13.863  47.289 170.687  0.00  0.00    -0.254 OA
BRANCH  15  16
ATOM     16  S2  SGN d 505     -14.406  46.599 169.444  0.00  0.00     0.251 S 
ATOM     17  O5S SGN d 505     -14.346  47.607 168.415  0.00  0.00    -0.572 OA
ATOM     18  O4S SGN d 505     -15.745  46.192 169.806  0.00  0.00    -0.572 OA
ATOM     19  O6S SGN d 505     -13.529  45.469 169.170  0.00  0.00    -0.572 OA
ENDBRANCH  15  16
ENDBRANCH  14  15
ENDBRANCH  10  14
BRANCH  11  20
ATOM     20  O4  SGN d 505     -10.571  48.226 172.330  0.00  0.00    -0.348 OA
BRANCH  20  21
ATOM     21  C1  IDS d 506      -9.291  47.700 172.253  0.00  0.00     0.294 C 
ATOM     22  C2  IDS d 506      -8.628  48.194 170.959  0.00  0.00     0.231 C 
ATOM     23  C3  IDS d 506      -7.335  47.414 170.594  0.00  0.00     0.185 C 
ATOM     24  C4  IDS d 506      -7.410  45.904 170.908  0.00  0.00     0.189 C 
ATOM     25  C5  IDS d 506      -8.162  45.661 172.221  0.00  0.00     0.256 C 
ATOM     26  O5  IDS d 506      -9.395  46.300 172.190  0.00  0.00    -0.340 OA
BRANCH  22  27
ATOM     27  O2  IDS d 506      -9.517  48.045 169.869  0.00  0.00    -0.244 OA
BRANCH  27  28
ATOM     28  S   IDS d 506      -9.275  48.415 168.343  0.00  0.00     0.252 S 
ATOM     29  O1S IDS d 506     -10.506  48.993 167.901  0.00  0.00    -0.572 OA
ATOM     30  O2S IDS d 506      -8.205  49.369 168.280  0.00  0.00    -0.572 OA
ATOM     31  O3S IDS d 506      -8.964  47.163 167.686  0.00  0.00    -0.572 OA
ENDBRANCH  27  28
ENDBRANCH  22  27
BRANCH  23  32
ATOM     32  O3  IDS d 506      -6.246  47.975 171.323  0.00  0.00    -0.390 OA
ATOM     33  H   IDS d 506      -5.675  48.474 170.718  0.00  0.00     0.210 HD
ENDBRANCH  23  32
BRANCH  24  34
ATOM     34  O4  IDS d 506      -8.098  45.289 169.845  0.00  0.00    -0.390 OA
ATOM     35  H   IDS d 506      -8.777  44.694 170.200  0.00  0.00     0.210 HD
ENDBRANCH  24  34
BRANCH  25  36
ATOM     36  C6  IDS d 506      -8.355  44.213 172.634  0.00  0.00     0.206 C 
ATOM     37  O62 IDS d 506      -8.516  43.324 171.816  0.00  0.00    -0.646 OA
ATOM     38  O61 IDS d 506      -8.338  43.908 173.818  0.00  0.00    -0.646 OA
ENDBRANCH  25  36
ENDBRANCH  20  21
ENDBRANCH  11  20
BRANCH  12  39
ATOM     39  O3  SGN d 505     -10.447  49.024 175.238  0.00  0.00    -0.391 OA
ATOM     40  H   SGN d 505      -9.843  48.311 174.977  0.00  0.00     0.210 HD
ENDBRANCH  12  39
BRANCH  13  41
ATOM     41  N   SGN d 505     -13.045  49.181 176.613  0.00  0.00    -0.210 NA
ATOM     42  H   SGN d 505     -13.692  49.919 176.336  0.00  0.00     0.140 HD
BRANCH  41  43
ATOM     43  S1  SGN d 505     -13.717  48.396 177.933  0.00  0.00     0.156 S 
BRANCH  43  44
ATOM     44  O3S SGN d 505     -15.126  48.443 177.769  0.00  0.00    -0.296 OA
ATOM     45  H   SGN d 505     -15.534  48.796 178.575  0.00  0.00     0.231 HD
ENDBRANCH  43  44
BRANCH  43  46
ATOM     46  O1S SGN d 505     -13.195  47.045 177.951  0.00  0.00    -0.296 OA
ATOM     47  H   SGN d 505     -13.313  46.642 177.077  0.00  0.00     0.231 HD
ENDBRANCH  43  46
BRANCH  43  48
ATOM     48  O2S SGN d 505     -13.294  49.166 179.079  0.00  0.00    -0.296 OA
ATOM     49  H   SGN d 505     -13.813  49.984 179.129  0.00  0.00     0.231 HD
ENDBRANCH  43  48
ENDBRANCH  41  43
ENDBRANCH  13  41
ENDBRANCH   7   8
ENDBRANCH   2   7
BRANCH   1  50
ATOM     50  O3  IDS d 504     -18.116  49.304 174.974  0.00  0.00    -0.390 OA
ATOM     51  H   IDS d 504     -18.647  50.111 175.061  0.00  0.00     0.210 HD
ENDBRANCH   1  50
BRANCH   6  52
ATOM     52  C6  IDS d 504     -15.784  50.044 171.470  0.00  0.00     0.206 C 
ATOM     53  O62 IDS d 504     -16.374  49.331 170.656  0.00  0.00    -0.646 OA
ATOM     54  O61 IDS d 504     -14.705  50.519 171.141  0.00  0.00    -0.646 OA
ENDBRANCH   6  52
BRANCH   5  55
ATOM     55  O2  IDS d 504     -15.326  51.377 176.191  0.00  0.00    -0.244 OA
BRANCH  55  56
ATOM     56  S   IDS d 504     -15.040  52.024 177.558  0.00  0.00     0.252 S 
ATOM     57  O2S IDS d 504     -15.751  51.274 178.551  0.00  0.00    -0.572 OA
ATOM     58  O3S IDS d 504     -13.630  51.967 177.665  0.00  0.00    -0.572 OA
ATOM     59  O1S IDS d 504     -15.510  53.358 177.475  0.00  0.00    -0.572 OA
ENDBRANCH  55  56
ENDBRANCH   5  55
BRANCH   3  60
ATOM     60  O4  SGN d 503     -18.159  52.172 174.171  0.00  0.00    -0.348 OA
BRANCH  60  61
ATOM     61  C4  SGN d 503     -18.806  53.136 174.936  0.00  0.00     0.186 C 
ATOM     62  C5  SGN d 503     -20.309  52.808 174.975  0.00  0.00     0.181 C 
ATOM     63  O5  SGN d 503     -21.021  53.803 175.643  0.00  0.00    -0.349 OA
ATOM     64  C1  SGN d 503     -20.931  55.063 175.025  0.00  0.00     0.282 C 
ATOM     65  C2  SGN d 503     -19.464  55.515 174.992  0.00  0.00     0.157 C 
ATOM     66  C3  SGN d 503     -18.582  54.500 174.288  0.00  0.00     0.173 C 
BRANCH  62  67
ATOM     67  C6  SGN d 503     -20.650  51.540 175.710  0.00  0.00     0.227 C 
BRANCH  67  68
ATOM     68  O6  SGN d 503     -20.920  50.548 174.744  0.00  0.00    -0.254 OA
BRANCH  68  69
ATOM     69  S2  SGN d 503     -21.779  49.276 174.971  0.00  0.00     0.251 S 
ATOM     70  O6S SGN d 503     -22.739  49.685 175.920  0.00  0.00    -0.572 OA
ATOM     71  O4S SGN d 503     -22.416  48.942 173.743  0.00  0.00    -0.572 OA
ATOM     72  O5S SGN d 503     -20.873  48.223 175.420  0.00  0.00    -0.572 OA
ENDBRANCH  68  69
ENDBRANCH  67  68
ENDBRANCH  62  67
BRANCH  64  73
ATOM     73  O4  IDS d 502     -21.478  55.042 173.735  0.00  0.00    -0.348 OA
BRANCH  73  74
ATOM     74  C4  IDS d 502     -22.875  55.182 173.686  0.00  0.00     0.195 C 
ATOM     75  C3  IDS d 502     -23.239  56.667 173.499  0.00  0.00     0.185 C 
ATOM     76  C2  IDS d 502     -22.859  57.152 172.096  0.00  0.00     0.231 C 
ATOM     77  C1  IDS d 502     -23.344  56.195 171.013  0.00  0.00     0.291 C 
ATOM     78  O5  IDS d 502     -22.958  54.872 171.289  0.00  0.00    -0.340 OA
ATOM     79  C5  IDS d 502     -23.426  54.362 172.521  0.00  0.00     0.257 C 
BRANCH  75  80
ATOM     80  O3  IDS d 502     -24.636  56.820 173.652  0.00  0.00    -0.390 OA
ATOM     81  H   IDS d 502     -24.823  57.244 174.504  0.00  0.00     0.210 HD
ENDBRANCH  75  80
BRANCH  76  82
ATOM     82  O2  IDS d 502     -21.459  57.202 172.038  0.00  0.00    -0.244 OA
BRANCH  82  83
ATOM     83  S   IDS d 502     -20.557  58.440 171.721  0.00  0.00     0.252 S 
ATOM     84  O3S IDS d 502     -19.212  57.925 171.720  0.00  0.00    -0.572 OA
ATOM     85  O2S IDS d 502     -20.814  59.396 172.773  0.00  0.00    -0.572 OA
ATOM     86  O1S IDS d 502     -20.947  58.932 170.429  0.00  0.00    -0.572 OA
ENDBRANCH  82  83
ENDBRANCH  76  82
BRANCH  77  87
ATOM     87  O1  IDS d 502     -24.736  56.338 170.901  0.00  0.00    -0.368 OA
ATOM     88  H   IDS d 502     -25.161  55.478 171.043  0.00  0.00     0.212 HD
ENDBRANCH  77  87
BRANCH  79  89
ATOM     89  C6  IDS d 502     -23.154  52.868 172.625  0.00  0.00     0.206 C 
ATOM     90  O61 IDS d 502     -22.518  52.287 171.779  0.00  0.00    -0.646 OA
ATOM     91  O62 IDS d 502     -23.566  52.220 173.567  0.00  0.00    -0.646 OA
ENDBRANCH  79  89
ENDBRANCH  73  74
ENDBRANCH  64  73
BRANCH  65  92
ATOM     92  N   SGN d 503     -19.350  56.828 174.383  0.00  0.00    -0.210 NA
ATOM     93  H   SGN d 503     -20.203  56.992 173.848  0.00  0.00     0.140 HD
BRANCH  92  94
ATOM     94  S1  SGN d 503     -19.145  58.103 175.374  0.00  0.00     0.156 S 
BRANCH  94  95
ATOM     95  O2S SGN d 503     -20.465  58.619 175.732  0.00  0.00    -0.296 OA
ATOM     96  H   SGN d 503     -21.117  57.903 175.680  0.00  0.00     0.231 HD
ENDBRANCH  94  95
BRANCH  94  97
ATOM     97  O1S SGN d 503     -18.364  59.073 174.630  0.00  0.00    -0.296 OA
ATOM     98  H   SGN d 503     -18.960  59.646 174.123  0.00  0.00     0.231 HD
ENDBRANCH  94  97
BRANCH  94  99
ATOM     99  O3S SGN d 503     -18.414  57.542 176.488  0.00  0.00    -0.296 OA
ATOM    100  H   SGN d 503     -18.058  56.676 176.237  0.00  0.00     0.231 HD
ENDBRANCH  94  99
ENDBRANCH  92  94
ENDBRANCH  65  92
BRANCH  66 101
ATOM    101  O3  SGN d 503     -17.220  54.848 174.453  0.00  0.00    -0.391 OA
ATOM    102  H   SGN d 503     -16.778  54.176 174.993  0.00  0.00     0.210 HD
ENDBRANCH  66 101
ENDBRANCH  60  61
ENDBRANCH   3  60
TORSDOF 40
ENDMDL
MODEL 97
REMARK VINA RESULT:      -0.9      1.420      2.149
REMARK WARNING: 32 MAX_TORS EXCEEDED!!!
REMARK  40 active torsions:
REMARK  status: ('A' for Active; 'I' for Inactive)
REMARK    1 I    between atoms: C6_1  and  C5_8 
REMARK    2 I    between atoms: C6_1  and  O6_57 
REMARK    3 I    between atoms: O4_2  and  C4_49 
REMARK    4 I    between atoms: O6_3  and  C6_7 
REMARK    5 I    between atoms: O6_3  and  S2_58 
REMARK    6 I    between atoms: S_4  and  O2_6 
REMARK    7 I    between atoms: O3_5  and  C3_81 
REMARK    8 I    between atoms: O2_6  and  C2_11 
REMARK    9 I    between atoms: C6_7  and  C5_54 
REMARK   10 I    between atoms: O4_9  and  C4_32 
REMARK   11 I    between atoms: O4_9  and  C1_39 
REMARK   12 I    between atoms: O3_12  and  C3_18 
REMARK   13 I    between atoms: N_13  and  C2_52 
REMARK   14 I    between atoms: N_13  and  S1_45 
REMARK   15 I    between atoms: O3_17  and  C3_83 
REMARK   16 I    between atoms: C4_20  and  O4_44 
REMARK   17 I    between atoms: N_21  and  C2_66 
REMARK   18 I    between atoms: N_21  and  S1_53 
REMARK   19 I    between atoms: O3_22  and  C3_65 
REMARK   20 I    between atoms: C4_23  and  O4_74 
REMARK   21 I    between atoms: C1_25  and  O1_72 
REMARK   22 I    between atoms: C2_28  and  O2_69 
REMARK   23 I    between atoms: C4_33  and  O4_61 
REMARK   24 I    between atoms: O2S_34  and  S1_45 
REMARK   25 I    between atoms: C6_37  and  C5_47 
REMARK   26 I    between atoms: O2_38  and  C2_77 
REMARK   27 I    between atoms: O2_38  and  S_50 
REMARK   28 I    between atoms: O3S_40  and  S1_53 
REMARK   29 I    between atoms: O1S_42  and  S1_45 
REMARK   30 I    between atoms: O1S_43  and  S1_53 
REMARK   31 I    between atoms: O4_44  and  C1_46 
REMARK   32 I    between atoms: S1_45  and  O3S_60 
REMARK   33 I    between atoms: C6_48  and  C5_84 
REMARK   34 I    between atoms: C6_51  and  C5_87 
REMARK   35 I    between atoms: S1_53  and  O2S_55 
REMARK   36 I    between atoms: C1_56  and  O4_74 
REMARK   37 I    between atoms: O6_57  and  S2_82 
REMARK   38 I    between atoms: O4_61  and  C1_70 
REMARK   39 I    between atoms: C3_63  and  O3_79 
REMARK   40 I    between atoms: O2_69  and  S_76 
ROOT
ATOM      1  C3  IDS d 504     -17.066  50.213 175.095  0.00  0.00     0.185 C 
ATOM      2  C4  IDS d 504     -16.308  49.917 173.810  0.00  0.00     0.195 C 
ATOM      3  C1  IDS d 504     -16.518  52.694 174.701  0.00  0.00     0.294 C 
ATOM      4  O5  IDS d 504     -15.815  52.257 173.534  0.00  0.00    -0.340 OA
ATOM      5  C2  IDS d 504     -16.625  51.587 175.731  0.00  0.00     0.231 C 
ATOM      6  C5  IDS d 504     -16.388  51.138 172.896  0.00  0.00     0.257 C 
ENDROOT
BRANCH   2   7
ATOM      7  O4  IDS d 504     -14.953  49.627 174.121  0.00  0.00    -0.348 OA
BRANCH   7   8
ATOM      8  C1  SGN d 505     -14.730  48.294 174.493  0.00  0.00     0.282 C 
ATOM      9  O5  SGN d 505     -14.419  47.519 173.369  0.00  0.00    -0.349 OA
ATOM     10  C5  SGN d 505     -13.225  47.885 172.747  0.00  0.00     0.181 C 
ATOM     11  C4  SGN d 505     -12.067  47.642 173.660  0.00  0.00     0.186 C 
ATOM     12  C3  SGN d 505     -12.261  48.582 174.885  0.00  0.00     0.173 C 
ATOM     13  C2  SGN d 505     -13.611  48.179 175.510  0.00  0.00     0.157 C 
BRANCH  10  14
ATOM     14  C6  SGN d 505     -13.148  47.086 171.487  0.00  0.00     0.227 C 
BRANCH  14  15
ATOM     15  O6  SGN d 505     -14.446  47.047 171.001  0.00  0.00    -0.254 OA
BRANCH  15  16
ATOM     16  S2  SGN d 505     -14.944  46.324 169.759  0.00  0.00     0.251 S 
ATOM     17  O5S SGN d 505     -15.407  47.376 168.888  0.00  0.00    -0.572 OA
ATOM     18  O4S SGN d 505     -15.983  45.442 170.239  0.00  0.00    -0.572 OA
ATOM     19  O6S SGN d 505     -13.806  45.603 169.204  0.00  0.00    -0.572 OA
ENDBRANCH  15  16
ENDBRANCH  14  15
ENDBRANCH  10  14
BRANCH  11  20
ATOM     20  O4  SGN d 505     -10.911  47.880 172.886  0.00  0.00    -0.348 OA
BRANCH  20  21
ATOM     21  C1  IDS d 506      -9.814  47.032 172.865  0.00  0.00     0.294 C 
ATOM     22  C2  IDS d 506      -8.617  47.752 173.503  0.00  0.00     0.231 C 
ATOM     23  C3  IDS d 506      -7.260  47.044 173.236  0.00  0.00     0.185 C 
ATOM     24  C4  IDS d 506      -7.144  46.435 171.823  0.00  0.00     0.189 C 
ATOM     25  C5  IDS d 506      -8.479  45.823 171.385  0.00  0.00     0.256 C 
ATOM     26  O5  IDS d 506      -9.500  46.756 171.524  0.00  0.00    -0.340 OA
BRANCH  22  27
ATOM     27  O2  IDS d 506      -8.504  49.063 172.983  0.00  0.00    -0.244 OA
BRANCH  27  28
ATOM     28  S   IDS d 506      -8.641  50.443 173.758  0.00  0.00     0.252 S 
ATOM     29  O1S IDS d 506      -7.349  51.052 173.663  0.00  0.00    -0.572 OA
ATOM     30  O2S IDS d 506      -9.634  51.234 173.088  0.00  0.00    -0.572 OA
ATOM     31  O3S IDS d 506      -9.007  50.093 175.113  0.00  0.00    -0.572 OA
ENDBRANCH  27  28
ENDBRANCH  22  27
BRANCH  23  32
ATOM     32  O3  IDS d 506      -7.097  46.001 174.194  0.00  0.00    -0.390 OA
ATOM     33  H   IDS d 506      -7.235  45.143 173.764  0.00  0.00     0.210 HD
ENDBRANCH  23  32
BRANCH  24  34
ATOM     34  O4  IDS d 506      -6.789  47.478 170.945  0.00  0.00    -0.390 OA
ATOM     35  H   IDS d 506      -5.825  47.498 170.841  0.00  0.00     0.210 HD
ENDBRANCH  24  34
BRANCH  25  36
ATOM     36  C6  IDS d 506      -8.528  45.227 169.991  0.00  0.00     0.206 C 
ATOM     37  O62 IDS d 506      -7.676  45.470 169.154  0.00  0.00    -0.646 OA
ATOM     38  O61 IDS d 506      -9.434  44.464 169.683  0.00  0.00    -0.646 OA
ENDBRANCH  25  36
ENDBRANCH  20  21
ENDBRANCH  11  20
BRANCH  12  39
ATOM     39  O3  SGN d 505     -11.237  48.366 175.847  0.00  0.00    -0.391 OA
ATOM     40  H   SGN d 505     -10.716  49.178 175.953  0.00  0.00     0.210 HD
ENDBRANCH  12  39
BRANCH  13  41
ATOM     41  N   SGN d 505     -13.988  48.919 176.737  0.00  0.00    -0.210 NA
ATOM     42  H   SGN d 505     -14.960  49.208 176.633  0.00  0.00     0.140 HD
BRANCH  41  43
ATOM     43  S1  SGN d 505     -13.859  48.109 178.199  0.00  0.00     0.156 S 
BRANCH  43  44
ATOM     44  O3S SGN d 505     -15.180  47.830 178.635  0.00  0.00    -0.296 OA
ATOM     45  H   SGN d 505     -15.652  47.338 177.945  0.00  0.00     0.231 HD
ENDBRANCH  43  44
BRANCH  43  46
ATOM     46  O1S SGN d 505     -13.075  46.914 177.969  0.00  0.00    -0.296 OA
ATOM     47  H   SGN d 505     -12.363  46.864 178.625  0.00  0.00     0.231 HD
ENDBRANCH  43  46
BRANCH  43  48
ATOM     48  O2S SGN d 505     -13.198  49.040 179.083  0.00  0.00    -0.296 OA
ATOM     49  H   SGN d 505     -12.478  49.484 178.607  0.00  0.00     0.231 HD
ENDBRANCH  43  48
ENDBRANCH  41  43
ENDBRANCH  13  41
ENDBRANCH   7   8
ENDBRANCH   2   7
BRANCH   1  50
ATOM     50  O3  IDS d 504     -18.448  50.262 174.763  0.00  0.00    -0.390 OA
ATOM     51  H   IDS d 504     -18.668  49.514 174.186  0.00  0.00     0.210 HD
ENDBRANCH   1  50
BRANCH   6  52
ATOM     52  C6  IDS d 504     -15.778  50.947 171.497  0.00  0.00     0.206 C 
ATOM     53  O62 IDS d 504     -15.232  51.881 170.907  0.00  0.00    -0.646 OA
ATOM     54  O61 IDS d 504     -15.838  49.865 170.927  0.00  0.00    -0.646 OA
ENDBRANCH   6  52
BRANCH   5  55
ATOM     55  O2  IDS d 504     -15.362  51.454 176.379  0.00  0.00    -0.244 OA
BRANCH  55  56
ATOM     56  S   IDS d 504     -15.009  51.904 177.809  0.00  0.00     0.252 S 
ATOM     57  O2S IDS d 504     -13.580  51.930 177.915  0.00  0.00    -0.572 OA
ATOM     58  O3S IDS d 504     -15.638  53.167 177.925  0.00  0.00    -0.572 OA
ATOM     59  O1S IDS d 504     -15.581  50.946 178.682  0.00  0.00    -0.572 OA
ENDBRANCH  55  56
ENDBRANCH   5  55
BRANCH   3  60
ATOM     60  O4  SGN d 503     -17.808  53.150 174.411  0.00  0.00    -0.348 OA
BRANCH  60  61
ATOM     61  C4  SGN d 503     -17.844  54.412 173.829  0.00  0.00     0.186 C 
ATOM     62  C5  SGN d 503     -18.573  55.375 174.783  0.00  0.00     0.181 C 
ATOM     63  O5  SGN d 503     -18.730  56.632 174.201  0.00  0.00    -0.349 OA
ATOM     64  C1  SGN d 503     -19.506  56.611 173.029  0.00  0.00     0.282 C 
ATOM     65  C2  SGN d 503     -18.827  55.719 171.980  0.00  0.00     0.157 C 
ATOM     66  C3  SGN d 503     -18.597  54.314 172.504  0.00  0.00     0.173 C 
BRANCH  62  67
ATOM     67  C6  SGN d 503     -17.845  55.642 176.072  0.00  0.00     0.227 C 
BRANCH  67  68
ATOM     68  O6  SGN d 503     -16.997  56.751 175.860  0.00  0.00    -0.254 OA
BRANCH  68  69
ATOM     69  S2  SGN d 503     -15.450  56.698 175.765  0.00  0.00     0.251 S 
ATOM     70  O6S SGN d 503     -15.210  55.897 174.629  0.00  0.00    -0.572 OA
ATOM     71  O4S SGN d 503     -14.971  58.020 175.541  0.00  0.00    -0.572 OA
ATOM     72  O5S SGN d 503     -14.962  56.147 177.026  0.00  0.00    -0.572 OA
ENDBRANCH  68  69
ENDBRANCH  67  68
ENDBRANCH  62  67
BRANCH  64  73
ATOM     73  O4  IDS d 502     -20.813  56.175 173.287  0.00  0.00    -0.348 OA
BRANCH  73  74
ATOM     74  C4  IDS d 502     -21.675  57.163 173.788  0.00  0.00     0.195 C 
ATOM     75  C3  IDS d 502     -22.333  57.918 172.617  0.00  0.00     0.185 C 
ATOM     76  C2  IDS d 502     -23.332  57.022 171.880  0.00  0.00     0.231 C 
ATOM     77  C1  IDS d 502     -24.278  56.313 172.843  0.00  0.00     0.291 C 
ATOM     78  O5  IDS d 502     -23.570  55.663 173.869  0.00  0.00    -0.340 OA
ATOM     79  C5  IDS d 502     -22.751  56.509 174.652  0.00  0.00     0.257 C 
BRANCH  75  80
ATOM     80  O3  IDS d 502     -23.036  59.034 173.126  0.00  0.00    -0.390 OA
ATOM     81  H   IDS d 502     -23.102  58.961 174.091  0.00  0.00     0.210 HD
ENDBRANCH  75  80
BRANCH  76  82
ATOM     82  O2  IDS d 502     -22.592  56.045 171.198  0.00  0.00    -0.244 OA
BRANCH  82  83
ATOM     83  S   IDS d 502     -22.816  55.515 169.743  0.00  0.00     0.252 S 
ATOM     84  O3S IDS d 502     -22.508  56.635 168.893  0.00  0.00    -0.572 OA
ATOM     85  O2S IDS d 502     -24.199  55.101 169.683  0.00  0.00    -0.572 OA
ATOM     86  O1S IDS d 502     -21.909  54.419 169.544  0.00  0.00    -0.572 OA
ENDBRANCH  82  83
ENDBRANCH  76  82
BRANCH  77  87
ATOM     87  O1  IDS d 502     -25.188  57.262 173.333  0.00  0.00    -0.368 OA
ATOM     88  H   IDS d 502     -25.358  57.929 172.649  0.00  0.00     0.212 HD
ENDBRANCH  77  87
BRANCH  79  89
ATOM     89  C6  IDS d 502     -22.211  55.764 175.864  0.00  0.00     0.206 C 
ATOM     90  O61 IDS d 502     -22.150  54.558 175.883  0.00  0.00    -0.646 OA
ATOM     91  O62 IDS d 502     -21.821  56.365 176.846  0.00  0.00    -0.646 OA
ENDBRANCH  79  89
ENDBRANCH  73  74
ENDBRANCH  64  73
BRANCH  65  92
ATOM     92  N   SGN d 503     -19.598  55.705 170.749  0.00  0.00    -0.210 NA
ATOM     93  H   SGN d 503     -20.547  56.000 170.979  0.00  0.00     0.140 HD
BRANCH  92  94
ATOM     94  S1  SGN d 503     -19.080  56.645 169.525  0.00  0.00     0.156 S 
BRANCH  94  95
ATOM     95  O2S SGN d 503     -17.640  56.844 169.681  0.00  0.00    -0.296 OA
ATOM     96  H   SGN d 503     -17.187  56.576 168.866  0.00  0.00     0.231 HD
ENDBRANCH  94  95
BRANCH  94  97
ATOM     97  O1S SGN d 503     -19.817  57.890 169.632  0.00  0.00    -0.296 OA
ATOM     98  H   SGN d 503     -19.784  58.358 168.783  0.00  0.00     0.231 HD
ENDBRANCH  94  97
BRANCH  94  99
ATOM     99  O3S SGN d 503     -19.442  55.886 168.349  0.00  0.00    -0.296 OA
ATOM    100  H   SGN d 503     -18.808  56.070 167.639  0.00  0.00     0.231 HD
ENDBRANCH  94  99
ENDBRANCH  92  94
ENDBRANCH  65  92
BRANCH  66 101
ATOM    101  O3  SGN d 503     -17.794  53.585 171.595  0.00  0.00    -0.391 OA
ATOM    102  H   SGN d 503     -17.142  54.179 171.192  0.00  0.00     0.210 HD
ENDBRANCH  66 101
ENDBRANCH  60  61
ENDBRANCH   3  60
TORSDOF 40
ENDMDL
MODEL 98
REMARK VINA RESULT:      -0.7      2.832     13.133
REMARK WARNING: 32 MAX_TORS EXCEEDED!!!
REMARK  40 active torsions:
REMARK  status: ('A' for Active; 'I' for Inactive)
REMARK    1 I    between atoms: C6_1  and  C5_8 
REMARK    2 I    between atoms: C6_1  and  O6_57 
REMARK    3 I    between atoms: O4_2  and  C4_49 
REMARK    4 I    between atoms: O6_3  and  C6_7 
REMARK    5 I    between atoms: O6_3  and  S2_58 
REMARK    6 I    between atoms: S_4  and  O2_6 
REMARK    7 I    between atoms: O3_5  and  C3_81 
REMARK    8 I    between atoms: O2_6  and  C2_11 
REMARK    9 I    between atoms: C6_7  and  C5_54 
REMARK   10 I    between atoms: O4_9  and  C4_32 
REMARK   11 I    between atoms: O4_9  and  C1_39 
REMARK   12 I    between atoms: O3_12  and  C3_18 
REMARK   13 I    between atoms: N_13  and  C2_52 
REMARK   14 I    between atoms: N_13  and  S1_45 
REMARK   15 I    between atoms: O3_17  and  C3_83 
REMARK   16 I    between atoms: C4_20  and  O4_44 
REMARK   17 I    between atoms: N_21  and  C2_66 
REMARK   18 I    between atoms: N_21  and  S1_53 
REMARK   19 I    between atoms: O3_22  and  C3_65 
REMARK   20 I    between atoms: C4_23  and  O4_74 
REMARK   21 I    between atoms: C1_25  and  O1_72 
REMARK   22 I    between atoms: C2_28  and  O2_69 
REMARK   23 I    between atoms: C4_33  and  O4_61 
REMARK   24 I    between atoms: O2S_34  and  S1_45 
REMARK   25 I    between atoms: C6_37  and  C5_47 
REMARK   26 I    between atoms: O2_38  and  C2_77 
REMARK   27 I    between atoms: O2_38  and  S_50 
REMARK   28 I    between atoms: O3S_40  and  S1_53 
REMARK   29 I    between atoms: O1S_42  and  S1_45 
REMARK   30 I    between atoms: O1S_43  and  S1_53 
REMARK   31 I    between atoms: O4_44  and  C1_46 
REMARK   32 I    between atoms: S1_45  and  O3S_60 
REMARK   33 I    between atoms: C6_48  and  C5_84 
REMARK   34 I    between atoms: C6_51  and  C5_87 
REMARK   35 I    between atoms: S1_53  and  O2S_55 
REMARK   36 I    between atoms: C1_56  and  O4_74 
REMARK   37 I    between atoms: O6_57  and  S2_82 
REMARK   38 I    between atoms: O4_61  and  C1_70 
REMARK   39 I    between atoms: C3_63  and  O3_79 
REMARK   40 I    between atoms: O2_69  and  S_76 
ROOT
ATOM      1  C3  IDS d 504     -14.427  46.703 173.313  0.00  0.00     0.185 C 
ATOM      2  C4  IDS d 504     -14.448  48.081 173.957  0.00  0.00     0.195 C 
ATOM      3  C1  IDS d 504     -12.476  47.546 171.866  0.00  0.00     0.294 C 
ATOM      4  O5  IDS d 504     -12.638  48.797 172.542  0.00  0.00    -0.340 OA
ATOM      5  C2  IDS d 504     -13.756  46.735 171.886  0.00  0.00     0.231 C 
ATOM      6  C5  IDS d 504     -13.046  48.682 173.886  0.00  0.00     0.257 C 
ENDROOT
BRANCH   2   7
ATOM      7  O4  IDS d 504     -15.371  48.908 173.264  0.00  0.00    -0.348 OA
BRANCH   7   8
ATOM      8  C1  SGN d 505     -16.700  48.748 173.681  0.00  0.00     0.282 C 
ATOM      9  O5  SGN d 505     -16.890  49.330 174.940  0.00  0.00    -0.349 OA
ATOM     10  C5  SGN d 505     -16.712  50.713 174.952  0.00  0.00     0.181 C 
ATOM     11  C4  SGN d 505     -17.751  51.378 174.109  0.00  0.00     0.186 C 
ATOM     12  C3  SGN d 505     -17.517  50.892 172.649  0.00  0.00     0.173 C 
ATOM     13  C2  SGN d 505     -17.672  49.360 172.691  0.00  0.00     0.157 C 
BRANCH  10  14
ATOM     14  C6  SGN d 505     -16.773  51.130 176.386  0.00  0.00     0.227 C 
BRANCH  14  15
ATOM     15  O6  SGN d 505     -15.481  50.976 176.865  0.00  0.00    -0.254 OA
BRANCH  15  16
ATOM     16  S2  SGN d 505     -14.973  51.293 178.264  0.00  0.00     0.251 S 
ATOM     17  O5S SGN d 505     -16.110  51.866 178.940  0.00  0.00    -0.572 OA
ATOM     18  O4S SGN d 505     -13.874  52.209 178.057  0.00  0.00    -0.572 OA
ATOM     19  O6S SGN d 505     -14.550  50.031 178.856  0.00  0.00    -0.572 OA
ENDBRANCH  15  16
ENDBRANCH  14  15
ENDBRANCH  10  14
BRANCH  11  20
ATOM     20  O4  SGN d 505     -17.589  52.765 174.323  0.00  0.00    -0.348 OA
BRANCH  20  21
ATOM     21  C1  IDS d 506     -18.591  53.697 174.101  0.00  0.00     0.294 C 
ATOM     22  C2  IDS d 506     -18.037  55.100 174.385  0.00  0.00     0.231 C 
ATOM     23  C3  IDS d 506     -19.142  56.187 174.500  0.00  0.00     0.185 C 
ATOM     24  C4  IDS d 506     -20.425  55.695 175.203  0.00  0.00     0.189 C 
ATOM     25  C5  IDS d 506     -20.744  54.251 174.802  0.00  0.00     0.256 C 
ATOM     26  O5  IDS d 506     -19.634  53.442 175.008  0.00  0.00    -0.340 OA
BRANCH  22  27
ATOM     27  O2  IDS d 506     -17.328  55.105 175.609  0.00  0.00    -0.244 OA
BRANCH  27  28
ATOM     28  S   IDS d 506     -15.849  55.614 175.888  0.00  0.00     0.252 S 
ATOM     29  O1S IDS d 506     -15.432  54.917 177.065  0.00  0.00    -0.572 OA
ATOM     30  O2S IDS d 506     -15.034  55.258 174.761  0.00  0.00    -0.572 OA
ATOM     31  O3S IDS d 506     -15.962  57.044 176.082  0.00  0.00    -0.572 OA
ENDBRANCH  27  28
ENDBRANCH  22  27
BRANCH  23  32
ATOM     32  O3  IDS d 506     -19.483  56.626 173.188  0.00  0.00    -0.390 OA
ATOM     33  H   IDS d 506     -20.026  57.428 173.246  0.00  0.00     0.210 HD
ENDBRANCH  23  32
BRANCH  24  34
ATOM     34  O4  IDS d 506     -20.194  55.763 176.591  0.00  0.00    -0.390 OA
ATOM     35  H   IDS d 506     -20.995  56.078 177.038  0.00  0.00     0.210 HD
ENDBRANCH  24  34
BRANCH  25  36
ATOM     36  C6  IDS d 506     -21.958  53.618 175.456  0.00  0.00     0.206 C 
ATOM     37  O62 IDS d 506     -22.067  52.410 175.584  0.00  0.00    -0.646 OA
ATOM     38  O61 IDS d 506     -22.859  54.324 175.888  0.00  0.00    -0.646 OA
ENDBRANCH  25  36
ENDBRANCH  20  21
ENDBRANCH  11  20
BRANCH  12  39
ATOM     39  O3  SGN d 505     -18.511  51.422 171.782  0.00  0.00    -0.391 OA
ATOM     40  H   SGN d 505     -18.937  52.185 172.205  0.00  0.00     0.210 HD
ENDBRANCH  12  39
BRANCH  13  41
ATOM     41  N   SGN d 505     -17.538  48.673 171.386  0.00  0.00    -0.210 NA
ATOM     42  H   SGN d 505     -16.650  48.170 171.395  0.00  0.00     0.140 HD
BRANCH  41  43
ATOM     43  S1  SGN d 505     -18.732  47.576 170.961  0.00  0.00     0.156 S 
BRANCH  43  44
ATOM     44  O3S SGN d 505     -18.431  46.359 171.627  0.00  0.00    -0.296 OA
ATOM     45  H   SGN d 505     -19.120  46.172 172.284  0.00  0.00     0.231 HD
ENDBRANCH  43  44
BRANCH  43  46
ATOM     46  O1S SGN d 505     -20.005  48.140 171.359  0.00  0.00    -0.296 OA
ATOM     47  H   SGN d 505     -20.178  47.922 172.288  0.00  0.00     0.231 HD
ENDBRANCH  43  46
BRANCH  43  48
ATOM     48  O2S SGN d 505     -18.615  47.435 169.529  0.00  0.00    -0.296 OA
ATOM     49  H   SGN d 505     -19.361  47.880 169.098  0.00  0.00     0.231 HD
ENDBRANCH  43  48
ENDBRANCH  41  43
ENDBRANCH  13  41
ENDBRANCH   7   8
ENDBRANCH   2   7
BRANCH   1  50
ATOM     50  O3  IDS d 504     -13.679  45.851 174.173  0.00  0.00    -0.390 OA
ATOM     51  H   IDS d 504     -12.758  46.155 174.206  0.00  0.00     0.210 HD
ENDBRANCH   1  50
BRANCH   6  52
ATOM     52  C6  IDS d 504     -12.874  50.025 174.617  0.00  0.00     0.206 C 
ATOM     53  O62 IDS d 504     -12.604  50.066 175.818  0.00  0.00    -0.646 OA
ATOM     54  O61 IDS d 504     -13.020  51.087 174.025  0.00  0.00    -0.646 OA
ENDBRANCH   6  52
BRANCH   5  55
ATOM     55  O2  IDS d 504     -14.653  47.289 170.926  0.00  0.00    -0.244 OA
BRANCH  55  56
ATOM     56  S   IDS d 504     -15.112  46.634 169.610  0.00  0.00     0.252 S 
ATOM     57  O2S IDS d 504     -13.947  46.115 168.955  0.00  0.00    -0.572 OA
ATOM     58  O3S IDS d 504     -16.043  45.656 170.032  0.00  0.00    -0.572 OA
ATOM     59  O1S IDS d 504     -15.728  47.657 168.847  0.00  0.00    -0.572 OA
ENDBRANCH  55  56
ENDBRANCH   5  55
BRANCH   3  60
ATOM     60  O4  SGN d 503     -11.453  46.768 172.417  0.00  0.00    -0.348 OA
BRANCH  60  61
ATOM     61  C4  SGN d 503     -10.414  46.492 171.536  0.00  0.00     0.186 C 
ATOM     62  C5  SGN d 503      -9.430  45.526 172.220  0.00  0.00     0.181 C 
ATOM     63  O5  SGN d 503      -8.313  45.299 171.419  0.00  0.00    -0.349 OA
ATOM     64  C1  SGN d 503      -7.569  46.463 171.157  0.00  0.00     0.282 C 
ATOM     65  C2  SGN d 503      -8.449  47.477 170.413  0.00  0.00     0.157 C 
ATOM     66  C3  SGN d 503      -9.710  47.802 171.193  0.00  0.00     0.173 C 
BRANCH  62  67
ATOM     67  C6  SGN d 503      -9.990  44.155 172.487  0.00  0.00     0.227 C 
BRANCH  67  68
ATOM     68  O6  SGN d 503     -10.873  43.843 171.432  0.00  0.00    -0.254 OA
BRANCH  68  69
ATOM     69  S2  SGN d 503     -12.205  43.060 171.571  0.00  0.00     0.251 S 
ATOM     70  O6S SGN d 503     -11.796  41.711 171.638  0.00  0.00    -0.572 OA
ATOM     71  O4S SGN d 503     -12.825  43.445 172.793  0.00  0.00    -0.572 OA
ATOM     72  O5S SGN d 503     -13.025  43.401 170.412  0.00  0.00    -0.572 OA
ENDBRANCH  68  69
ENDBRANCH  67  68
ENDBRANCH  62  67
BRANCH  64  73
ATOM     73  O4  IDS d 502      -7.052  47.017 172.335  0.00  0.00    -0.348 OA
BRANCH  73  74
ATOM     74  C4  IDS d 502      -5.721  46.667 172.616  0.00  0.00     0.195 C 
ATOM     75  C3  IDS d 502      -4.788  47.830 172.230  0.00  0.00     0.185 C 
ATOM     76  C2  IDS d 502      -4.971  49.018 173.179  0.00  0.00     0.231 C 
ATOM     77  C1  IDS d 502      -4.944  48.586 174.642  0.00  0.00     0.291 C 
ATOM     78  O5  IDS d 502      -5.830  47.520 174.876  0.00  0.00    -0.340 OA
ATOM     79  C5  IDS d 502      -5.580  46.361 174.106  0.00  0.00     0.257 C 
BRANCH  75  80
ATOM     80  O3  IDS d 502      -3.446  47.394 172.326  0.00  0.00    -0.390 OA
ATOM     81  H   IDS d 502      -3.403  46.441 172.155  0.00  0.00     0.210 HD
ENDBRANCH  75  80
BRANCH  76  82
ATOM     82  O2  IDS d 502      -6.230  49.574 172.913  0.00  0.00    -0.244 OA
BRANCH  82  83
ATOM     83  S   IDS d 502      -6.547  50.979 172.303  0.00  0.00     0.252 S 
ATOM     84  O3S IDS d 502      -6.119  51.920 173.305  0.00  0.00    -0.572 OA
ATOM     85  O2S IDS d 502      -7.971  50.993 172.061  0.00  0.00    -0.572 OA
ATOM     86  O1S IDS d 502      -5.787  51.099 171.090  0.00  0.00    -0.572 OA
ENDBRANCH  82  83
ENDBRANCH  76  82
BRANCH  77  87
ATOM     87  O1  IDS d 502      -3.618  48.270 174.974  0.00  0.00    -0.368 OA
ATOM     88  H   IDS d 502      -3.585  47.931 175.883  0.00  0.00     0.212 HD
ENDBRANCH  77  87
BRANCH  79  89
ATOM     89  C6  IDS d 502      -6.435  45.199 174.588  0.00  0.00     0.206 C 
ATOM     90  O61 IDS d 502      -7.268  45.348 175.449  0.00  0.00    -0.646 OA
ATOM     91  O62 IDS d 502      -6.304  44.086 174.115  0.00  0.00    -0.646 OA
ENDBRANCH  79  89
ENDBRANCH  73  74
ENDBRANCH  64  73
BRANCH  65  92
ATOM     92  N   SGN d 503      -7.692  48.678 170.106  0.00  0.00    -0.210 NA
ATOM     93  H   SGN d 503      -6.773  48.579 170.537  0.00  0.00     0.140 HD
BRANCH  92  94
ATOM     94  S1  SGN d 503      -7.456  49.039 168.537  0.00  0.00     0.156 S 
BRANCH  94  95
ATOM     95  O2S SGN d 503      -6.863  50.374 168.460  0.00  0.00    -0.296 OA
ATOM     96  H   SGN d 503      -5.914  50.294 168.274  0.00  0.00     0.231 HD
ENDBRANCH  94  95
BRANCH  94  97
ATOM     97  O1S SGN d 503      -8.763  48.987 167.909  0.00  0.00    -0.296 OA
ATOM     98  H   SGN d 503      -9.450  48.984 168.593  0.00  0.00     0.231 HD
ENDBRANCH  94  97
BRANCH  94  99
ATOM     99  O3S SGN d 503      -6.581  47.983 168.081  0.00  0.00    -0.296 OA
ATOM    100  H   SGN d 503      -5.658  48.242 168.229  0.00  0.00     0.231 HD
ENDBRANCH  94  99
ENDBRANCH  92  94
ENDBRANCH  65  92
BRANCH  66 101
ATOM    101  O3  SGN d 503     -10.585  48.576 170.393  0.00  0.00    -0.391 OA
ATOM    102  H   SGN d 503     -11.490  48.490 170.729  0.00  0.00     0.210 HD
ENDBRANCH  66 101
ENDBRANCH  60  61
ENDBRANCH   3  60
TORSDOF 40
ENDMDL
MODEL 99
REMARK VINA RESULT:      -0.7      2.834     12.944
REMARK WARNING: 32 MAX_TORS EXCEEDED!!!
REMARK  40 active torsions:
REMARK  status: ('A' for Active; 'I' for Inactive)
REMARK    1 I    between atoms: C6_1  and  C5_8 
REMARK    2 I    between atoms: C6_1  and  O6_57 
REMARK    3 I    between atoms: O4_2  and  C4_49 
REMARK    4 I    between atoms: O6_3  and  C6_7 
REMARK    5 I    between atoms: O6_3  and  S2_58 
REMARK    6 I    between atoms: S_4  and  O2_6 
REMARK    7 I    between atoms: O3_5  and  C3_81 
REMARK    8 I    between atoms: O2_6  and  C2_11 
REMARK    9 I    between atoms: C6_7  and  C5_54 
REMARK   10 I    between atoms: O4_9  and  C4_32 
REMARK   11 I    between atoms: O4_9  and  C1_39 
REMARK   12 I    between atoms: O3_12  and  C3_18 
REMARK   13 I    between atoms: N_13  and  C2_52 
REMARK   14 I    between atoms: N_13  and  S1_45 
REMARK   15 I    between atoms: O3_17  and  C3_83 
REMARK   16 I    between atoms: C4_20  and  O4_44 
REMARK   17 I    between atoms: N_21  and  C2_66 
REMARK   18 I    between atoms: N_21  and  S1_53 
REMARK   19 I    between atoms: O3_22  and  C3_65 
REMARK   20 I    between atoms: C4_23  and  O4_74 
REMARK   21 I    between atoms: C1_25  and  O1_72 
REMARK   22 I    between atoms: C2_28  and  O2_69 
REMARK   23 I    between atoms: C4_33  and  O4_61 
REMARK   24 I    between atoms: O2S_34  and  S1_45 
REMARK   25 I    between atoms: C6_37  and  C5_47 
REMARK   26 I    between atoms: O2_38  and  C2_77 
REMARK   27 I    between atoms: O2_38  and  S_50 
REMARK   28 I    between atoms: O3S_40  and  S1_53 
REMARK   29 I    between atoms: O1S_42  and  S1_45 
REMARK   30 I    between atoms: O1S_43  and  S1_53 
REMARK   31 I    between atoms: O4_44  and  C1_46 
REMARK   32 I    between atoms: S1_45  and  O3S_60 
REMARK   33 I    between atoms: C6_48  and  C5_84 
REMARK   34 I    between atoms: C6_51  and  C5_87 
REMARK   35 I    between atoms: S1_53  and  O2S_55 
REMARK   36 I    between atoms: C1_56  and  O4_74 
REMARK   37 I    between atoms: O6_57  and  S2_82 
REMARK   38 I    between atoms: O4_61  and  C1_70 
REMARK   39 I    between atoms: C3_63  and  O3_79 
REMARK   40 I    between atoms: O2_69  and  S_76 
ROOT
ATOM      1  C3  IDS d 504     -13.788  47.624 175.383  0.00  0.00     0.185 C 
ATOM      2  C4  IDS d 504     -13.919  49.128 175.565  0.00  0.00     0.195 C 
ATOM      3  C1  IDS d 504     -13.284  48.093 172.906  0.00  0.00     0.294 C 
ATOM      4  O5  IDS d 504     -13.467  49.476 173.227  0.00  0.00    -0.340 OA
ATOM      5  C2  IDS d 504     -14.016  47.195 173.883  0.00  0.00     0.231 C 
ATOM      6  C5  IDS d 504     -13.049  49.831 174.525  0.00  0.00     0.257 C 
ENDROOT
BRANCH   2   7
ATOM      7  O4  IDS d 504     -15.278  49.505 175.400  0.00  0.00    -0.348 OA
BRANCH   7   8
ATOM      8  C1  SGN d 505     -16.029  49.453 176.583  0.00  0.00     0.282 C 
ATOM      9  O5  SGN d 505     -15.916  50.658 177.286  0.00  0.00    -0.349 OA
ATOM     10  C5  SGN d 505     -16.453  51.754 176.611  0.00  0.00     0.181 C 
ATOM     11  C4  SGN d 505     -17.929  51.592 176.447  0.00  0.00     0.186 C 
ATOM     12  C3  SGN d 505     -18.142  50.340 175.546  0.00  0.00     0.173 C 
ATOM     13  C2  SGN d 505     -17.491  49.167 176.304  0.00  0.00     0.157 C 
BRANCH  10  14
ATOM     14  C6  SGN d 505     -16.088  52.961 177.413  0.00  0.00     0.227 C 
BRANCH  14  15
ATOM     15  O6  SGN d 505     -15.040  53.551 176.724  0.00  0.00    -0.254 OA
BRANCH  15  16
ATOM     16  S2  SGN d 505     -15.036  54.911 176.040  0.00  0.00     0.251 S 
ATOM     17  O5S SGN d 505     -13.827  54.919 175.255  0.00  0.00    -0.572 OA
ATOM     18  O4S SGN d 505     -15.053  55.867 177.124  0.00  0.00    -0.572 OA
ATOM     19  O6S SGN d 505     -16.236  54.974 175.217  0.00  0.00    -0.572 OA
ENDBRANCH  15  16
ENDBRANCH  14  15
ENDBRANCH  10  14
BRANCH  11  20
ATOM     20  O4  SGN d 505     -18.394  52.813 175.912  0.00  0.00    -0.348 OA
BRANCH  20  21
ATOM     21  C1  IDS d 506     -19.461  52.909 175.032  0.00  0.00     0.294 C 
ATOM     22  C2  IDS d 506     -19.641  54.379 174.626  0.00  0.00     0.231 C 
ATOM     23  C3  IDS d 506     -20.996  54.660 173.920  0.00  0.00     0.185 C 
ATOM     24  C4  IDS d 506     -22.179  53.858 174.503  0.00  0.00     0.189 C 
ATOM     25  C5  IDS d 506     -21.739  52.440 174.880  0.00  0.00     0.256 C 
ATOM     26  O5  IDS d 506     -20.621  52.490 175.704  0.00  0.00    -0.340 OA
BRANCH  22  27
ATOM     27  O2  IDS d 506     -19.596  55.208 175.771  0.00  0.00    -0.244 OA
BRANCH  27  28
ATOM     28  S   IDS d 506     -19.381  56.781 175.839  0.00  0.00     0.252 S 
ATOM     29  O1S IDS d 506     -19.133  57.181 174.487  0.00  0.00    -0.572 OA
ATOM     30  O2S IDS d 506     -20.587  57.375 176.340  0.00  0.00    -0.572 OA
ATOM     31  O3S IDS d 506     -18.242  56.979 176.709  0.00  0.00    -0.572 OA
ENDBRANCH  27  28
ENDBRANCH  22  27
BRANCH  23  32
ATOM     32  O3  IDS d 506     -20.863  54.333 172.539  0.00  0.00    -0.390 OA
ATOM     33  H   IDS d 506     -21.308  55.008 172.002  0.00  0.00     0.210 HD
ENDBRANCH  23  32
BRANCH  24  34
ATOM     34  O4  IDS d 506     -22.621  54.541 175.653  0.00  0.00    -0.390 OA
ATOM     35  H   IDS d 506     -23.587  54.485 175.712  0.00  0.00     0.210 HD
ENDBRANCH  24  34
BRANCH  25  36
ATOM     36  C6  IDS d 506     -22.792  51.549 175.513  0.00  0.00     0.206 C 
ATOM     37  O62 IDS d 506     -23.933  51.931 175.703  0.00  0.00    -0.646 OA
ATOM     38  O61 IDS d 506     -22.510  50.403 175.836  0.00  0.00    -0.646 OA
ENDBRANCH  25  36
ENDBRANCH  20  21
ENDBRANCH  11  20
BRANCH  12  39
ATOM     39  O3  SGN d 505     -19.529  50.065 175.394  0.00  0.00    -0.391 OA
ATOM     40  H   SGN d 505     -20.024  50.492 176.111  0.00  0.00     0.210 HD
ENDBRANCH  12  39
BRANCH  13  41
ATOM     41  N   SGN d 505     -17.614  47.844 175.649  0.00  0.00    -0.210 NA
ATOM     42  H   SGN d 505     -16.672  47.474 175.525  0.00  0.00     0.140 HD
BRANCH  41  43
ATOM     43  S1  SGN d 505     -18.512  46.670 176.440  0.00  0.00     0.156 S 
BRANCH  43  44
ATOM     44  O3S SGN d 505     -17.592  45.842 177.135  0.00  0.00    -0.296 OA
ATOM     45  H   SGN d 505     -18.075  45.257 177.738  0.00  0.00     0.231 HD
ENDBRANCH  43  44
BRANCH  43  46
ATOM     46  O1S SGN d 505     -19.440  47.348 177.321  0.00  0.00    -0.296 OA
ATOM     47  H   SGN d 505     -20.249  47.564 176.833  0.00  0.00     0.231 HD
ENDBRANCH  43  46
BRANCH  43  48
ATOM     48  O2S SGN d 505     -19.183  45.943 175.387  0.00  0.00    -0.296 OA
ATOM     49  H   SGN d 505     -18.910  46.296 174.526  0.00  0.00     0.231 HD
ENDBRANCH  43  48
ENDBRANCH  41  43
ENDBRANCH  13  41
ENDBRANCH   7   8
ENDBRANCH   2   7
BRANCH   1  50
ATOM     50  O3  IDS d 504     -12.472  47.267 175.787  0.00  0.00    -0.390 OA
ATOM     51  H   IDS d 504     -12.519  46.682 176.559  0.00  0.00     0.210 HD
ENDBRANCH   1  50
BRANCH   6  52
ATOM     52  C6  IDS d 504     -12.971  51.360 174.665  0.00  0.00     0.206 C 
ATOM     53  O62 IDS d 504     -13.457  52.104 173.811  0.00  0.00    -0.646 OA
ATOM     54  O61 IDS d 504     -12.407  51.877 175.621  0.00  0.00    -0.646 OA
ENDBRANCH   6  52
BRANCH   5  55
ATOM     55  O2  IDS d 504     -15.405  47.222 173.562  0.00  0.00    -0.244 OA
BRANCH  55  56
ATOM     56  S   IDS d 504     -16.298  46.011 173.236  0.00  0.00     0.252 S 
ATOM     57  O2S IDS d 504     -16.365  45.192 174.411  0.00  0.00    -0.572 OA
ATOM     58  O3S IDS d 504     -17.527  46.596 172.848  0.00  0.00    -0.572 OA
ATOM     59  O1S IDS d 504     -15.673  45.331 172.161  0.00  0.00    -0.572 OA
ENDBRANCH  55  56
ENDBRANCH   5  55
BRANCH   3  60
ATOM     60  O4  SGN d 503     -11.936  47.720 172.892  0.00  0.00    -0.348 OA
BRANCH  60  61
ATOM     61  C4  SGN d 503     -11.311  47.903 171.663  0.00  0.00     0.186 C 
ATOM     62  C5  SGN d 503     -11.406  46.593 170.862  0.00  0.00     0.181 C 
ATOM     63  O5  SGN d 503     -10.703  46.687 169.663  0.00  0.00    -0.349 OA
ATOM     64  C1  SGN d 503      -9.327  46.915 169.840  0.00  0.00     0.282 C 
ATOM     65  C2  SGN d 503      -9.119  48.244 170.582  0.00  0.00     0.157 C 
ATOM     66  C3  SGN d 503      -9.848  48.262 171.912  0.00  0.00     0.173 C 
BRANCH  62  67
ATOM     67  C6  SGN d 503     -12.804  46.214 170.452  0.00  0.00     0.227 C 
BRANCH  67  68
ATOM     68  O6  SGN d 503     -13.108  46.925 169.272  0.00  0.00    -0.254 OA
BRANCH  68  69
ATOM     69  S2  SGN d 503     -14.138  48.080 169.153  0.00  0.00     0.251 S 
ATOM     70  O6S SGN d 503     -15.103  47.771 170.135  0.00  0.00    -0.572 OA
ATOM     71  O4S SGN d 503     -13.481  49.300 169.481  0.00  0.00    -0.572 OA
ATOM     72  O5S SGN d 503     -14.629  48.076 167.779  0.00  0.00    -0.572 OA
ENDBRANCH  68  69
ENDBRANCH  67  68
ENDBRANCH  62  67
BRANCH  64  73
ATOM     73  O4  IDS d 502      -8.715  45.857 170.526  0.00  0.00    -0.348 OA
BRANCH  73  74
ATOM     74  C4  IDS d 502      -8.261  44.810 169.707  0.00  0.00     0.195 C 
ATOM     75  C3  IDS d 502      -6.732  44.906 169.545  0.00  0.00     0.185 C 
ATOM     76  C2  IDS d 502      -6.019  44.566 170.857  0.00  0.00     0.231 C 
ATOM     77  C1  IDS d 502      -6.554  43.279 171.478  0.00  0.00     0.291 C 
ATOM     78  O5  IDS d 502      -7.956  43.302 171.573  0.00  0.00    -0.340 OA
ATOM     79  C5  IDS d 502      -8.632  43.472 170.343  0.00  0.00     0.257 C 
BRANCH  75  80
ATOM     80  O3  IDS d 502      -6.315  43.976 168.565  0.00  0.00    -0.390 OA
ATOM     81  H   IDS d 502      -6.971  43.943 167.851  0.00  0.00     0.210 HD
ENDBRANCH  75  80
BRANCH  76  82
ATOM     82  O2  IDS d 502      -6.269  45.617 171.752  0.00  0.00    -0.244 OA
BRANCH  82  83
ATOM     83  S   IDS d 502      -5.222  46.484 172.526  0.00  0.00     0.252 S 
ATOM     84  O3S IDS d 502      -4.778  47.465 171.570  0.00  0.00    -0.572 OA
ATOM     85  O2S IDS d 502      -4.186  45.570 172.947  0.00  0.00    -0.572 OA
ATOM     86  O1S IDS d 502      -5.906  47.084 173.638  0.00  0.00    -0.572 OA
ENDBRANCH  82  83
ENDBRANCH  76  82
BRANCH  77  87
ATOM     87  O1  IDS d 502      -6.083  42.202 170.711  0.00  0.00    -0.368 OA
ATOM     88  H   IDS d 502      -5.113  42.186 170.739  0.00  0.00     0.212 HD
ENDBRANCH  77  87
BRANCH  79  89
ATOM     89  C6  IDS d 502     -10.129  43.256 170.517  0.00  0.00     0.206 C 
ATOM     90  O61 IDS d 502     -10.628  43.181 171.613  0.00  0.00    -0.646 OA
ATOM     91  O62 IDS d 502     -10.863  43.158 169.553  0.00  0.00    -0.646 OA
ENDBRANCH  79  89
ENDBRANCH  73  74
ENDBRANCH  64  73
BRANCH  65  92
ATOM     92  N   SGN d 503      -7.702  48.515 170.751  0.00  0.00    -0.210 NA
ATOM     93  H   SGN d 503      -7.191  47.716 170.375  0.00  0.00     0.140 HD
BRANCH  92  94
ATOM     94  S1  SGN d 503      -7.101  49.852 170.045  0.00  0.00     0.156 S 
BRANCH  94  95
ATOM     95  O2S SGN d 503      -5.650  49.851 170.225  0.00  0.00    -0.296 OA
ATOM     96  H   SGN d 503      -5.243  50.435 169.566  0.00  0.00     0.231 HD
ENDBRANCH  94  95
BRANCH  94  97
ATOM     97  O1S SGN d 503      -7.731  50.978 170.709  0.00  0.00    -0.296 OA
ATOM     98  H   SGN d 503      -8.084  51.589 170.044  0.00  0.00     0.231 HD
ENDBRANCH  94  97
BRANCH  94  99
ATOM     99  O3S SGN d 503      -7.520  49.717 168.668  0.00  0.00    -0.296 OA
ATOM    100  H   SGN d 503      -7.431  48.791 168.393  0.00  0.00     0.231 HD
ENDBRANCH  94  99
ENDBRANCH  92  94
ENDBRANCH  65  92
BRANCH  66 101
ATOM    101  O3  SGN d 503      -9.802  49.562 172.469  0.00  0.00    -0.391 OA
ATOM    102  H   SGN d 503      -8.879  49.848 172.547  0.00  0.00     0.210 HD
ENDBRANCH  66 101
ENDBRANCH  60  61
ENDBRANCH   3  60
TORSDOF 40
ENDMDL
