REMARK 45 active torsions
REMARK    1  A    between atoms: atom4  and  atom_
REMARK    2  A    between atoms: atom7  and  atom_
REMARK    3  A    between atoms: atom9  and  atom_
REMARK    4  A    between atoms: atom1  and  atom1
REMARK    5  A    between atoms: atom2  and  atom1
REMARK    6  A    between atoms: atom2  and  atom5
REMARK    7  A    between atoms: atom3  and  atom6
REMARK    8  A    between atoms: atom4  and  atom0
REMARK    9  A    between atoms: atom4  and  atom7
REMARK    10  A    between atoms: atom5  and  atom0
REMARK    11  A    between atoms: atom5  and  atom4
REMARK    12  A    between atoms: atom5  and  atom1
REMARK    13  A    between atoms: atom6  and  atom0
REMARK    14  A    between atoms: atom6  and  atom6
REMARK    15  A    between atoms: atom4  and  atom2
REMARK    16  A    between atoms: atom2  and  atom6
REMARK    17  A    between atoms: atom9  and  atom3
REMARK    18  A    between atoms: atom5  and  atom_
REMARK    19  A    between atoms: atom1  and  atom0
REMARK    20  A    between atoms: atom1  and  atom_
REMARK    21  A    between atoms: atom1  and  atom1
REMARK    22  A    between atoms: atom1  and  atom2
REMARK    23  A    between atoms: atom1  and  atom2
REMARK    24  A    between atoms: atom1  and  atom3
REMARK    25  A    between atoms: atom1  and  atom4
REMARK    26  A    between atoms: atom1  and  atom4
REMARK    27  A    between atoms: atom1  and  atom4
REMARK    28  A    between atoms: atom1  and  atom5
REMARK    29  A    between atoms: atom1  and  atom5
REMARK    30  A    between atoms: atom1  and  atom6
REMARK    31  A    between atoms: atom1  and  atom3
REMARK    32  A    between atoms: atom1  and  atom8
REMARK    33  A    between atoms: atom1  and  atom2
REMARK    34  A    between atoms: atom2  and  atom8
REMARK    35  A    between atoms: atom4  and  atom3
REMARK    36  A    between atoms: atom6  and  atom7
REMARK    37  A    between atoms: atom8  and  atom0
REMARK    38  A    between atoms: atom9  and  atom9
REMARK    39  A    between atoms: atom3  and  atom_
REMARK    40  A    between atoms: atom6  and  atom_
REMARK    41  A    between atoms: atom1  and  atom1
REMARK    42  A    between atoms: atom1  and  atom2
REMARK    43  A    between atoms: atom1  and  atom3
REMARK    44  A    between atoms: atom1  and  atom7
REMARK    45  A    between atoms: atom1  and  atom8
ROOT
ATOM      1  C1  SGN d 206      23.137 124.978   6.540  0.00  0.00     0.282 C 
ATOM      2  O5  SGN d 206      23.500 123.684   6.028  0.00  0.00    -0.349 OA
ATOM      3  C3  SGN d 206      23.580 124.249   8.878  0.00  0.00     0.173 C 
ATOM      4  C4  SGN d 206      24.044 122.890   8.313  0.00  0.00     0.186 C 
ATOM      5  C5  SGN d 206      24.570 123.086   6.851  0.00  0.00     0.181 C 
ATOM      6  C2  SGN d 206      22.465 124.825   7.960  0.00  0.00     0.160 C 
ENDROOT
BRANCH   1  117
ATOM    117  O4  IDS d 205      24.382 125.613   6.763  0.00  0.00    -0.348 OA
BRANCH  117  118
ATOM    118  C4  IDS d 205      24.643 126.939   6.522  0.00  0.00     0.195 C 
ATOM    119  C5  IDS d 205      26.106 126.920   5.986  0.00  0.00     0.253 C 
ATOM    120  O5  IDS d 205      26.994 126.667   7.132  0.00  0.00    -0.340 OA
ATOM    121  C1  IDS d 205      27.179 127.788   8.012  0.00  0.00     0.294 C 
ATOM    122  C2  IDS d 205      25.829 128.540   8.192  0.00  0.00     0.231 C 
ATOM    123  C3  IDS d 205      24.625 127.629   7.907  0.00  0.00     0.185 C 
ATOM    124  C6  IDS d 205      26.351 125.836   4.880  0.00  0.00     0.172 C 
ATOM    125  O61 IDS d 205      26.956 124.794   5.143  0.00  0.00    -0.648 OA
ATOM    195  O3  IDS d 205      23.432 128.377   8.041  0.00  0.00    -0.390 OA
ATOM    196  H   IDS d 205      23.416 129.082   7.375  0.00  0.00     0.210 HD
BRANCH  121  128
ATOM    128  O4  SGN d 204      28.099 128.759   7.479  0.00  0.00    -0.348 OA
BRANCH  128  129
ATOM    129  C4  SGN d 204      29.516 128.442   7.199  0.00  0.00     0.186 C 
ATOM    130  C3  SGN d 204      29.649 127.635   5.857  0.00  0.00     0.173 C 
ATOM    131  C2  SGN d 204      31.129 127.380   5.585  0.00  0.00     0.160 C 
ATOM    132  C1  SGN d 204      31.826 128.752   5.434  0.00  0.00     0.282 C 
ATOM    133  O5  SGN d 204      31.659 129.536   6.650  0.00  0.00    -0.349 OA
ATOM    134  C5  SGN d 204      30.285 129.789   7.013  0.00  0.00     0.181 C 
ATOM    135  O3  SGN d 204      29.027 126.399   5.990  0.00  0.00    -0.391 OA
ATOM    136  H   SGN d 204      29.444 125.903   6.712  0.00  0.00     0.210 HD
ATOM    137  N   SGN d 204      31.306 126.595   4.330  0.00  0.00    -0.189 NA
ATOM    138  H   SGN d 204      30.420 126.127   4.141  0.00  0.00     0.143 HD
BRANCH  132  143
ATOM    143  O4  IDS d 203      31.260 129.443   4.302  0.00  0.00    -0.348 OA
BRANCH  143  144
ATOM    144  C4  IDS d 203      32.016 130.509   3.713  0.00  0.00     0.195 C 
ATOM    145  C3  IDS d 203      32.756 129.972   2.445  0.00  0.00     0.185 C 
ATOM    146  C2  IDS d 203      31.831 129.837   1.179  0.00  0.00     0.231 C 
ATOM    147  C1  IDS d 203      30.807 130.990   0.981  0.00  0.00     0.294 C 
ATOM    148  O5  IDS d 203      30.160 131.258   2.241  0.00  0.00    -0.340 OA
ATOM    149  C5  IDS d 203      31.038 131.677   3.320  0.00  0.00     0.253 C 
ATOM    150  O3  IDS d 203      33.820 130.864   2.140  0.00  0.00    -0.390 OA
ATOM    151  H   IDS d 203      33.459 131.741   1.938  0.00  0.00     0.210 HD
ATOM    180  C6  IDS d 203      30.213 132.288   4.472  0.00  0.00     0.172 C 
ATOM    181  O61 IDS d 203      29.010 132.091   4.583  0.00  0.00    -0.648 OA
BRANCH  146  152
ATOM    152  O2  IDS d 203      31.070 128.641   1.265  0.00  0.00    -0.244 OA
ATOM    153  S   IDS d 203      31.032 127.441   0.250  0.00  0.00     0.252 S 
ATOM    154  O1S IDS d 203      32.380 126.915   0.185  0.00  0.00    -0.572 OA
ATOM    155  O2S IDS d 203      30.080 126.504   0.815  0.00  0.00    -0.572 OA
ATOM    156  O3S IDS d 203      30.591 127.983  -1.004  0.00  0.00    -0.572 OA
ENDBRANCH  146  152
BRANCH  147  157
ATOM    157  O4  SGN d 202      31.477 132.118   0.408  0.00  0.00    -0.348 OA
BRANCH  157  158
ATOM    158  C4  SGN d 202      30.697 133.122  -0.302  0.00  0.00     0.186 C 
ATOM    159  C5  SGN d 202      30.948 133.022  -1.852  0.00  0.00     0.181 C 
ATOM    160  O5  SGN d 202      30.196 134.063  -2.560  0.00  0.00    -0.350 OA
ATOM    161  C1  SGN d 202      30.481 135.420  -2.170  0.00  0.00     0.278 C 
ATOM    162  C2  SGN d 202      30.280 135.581  -0.621  0.00  0.00     0.160 C 
ATOM    163  C3  SGN d 202      31.151 134.536   0.153  0.00  0.00     0.173 C 
ATOM    170  O1  SGN d 202      31.775 135.797  -2.592  0.00  0.00    -0.369 OA
ATOM    171  H   SGN d 202      31.950 136.712  -2.321  0.00  0.00     0.212 HD
ATOM    172  N   SGN d 202      30.617 136.985  -0.237  0.00  0.00    -0.189 NA
ATOM    173  H   SGN d 202      31.381 137.277  -0.847  0.00  0.00     0.143 HD
ATOM    178  O3  SGN d 202      30.936 134.683   1.550  0.00  0.00    -0.391 OA
ATOM    179  H   SGN d 202      29.995 134.554   1.748  0.00  0.00     0.210 HD
BRANCH  159  164
ATOM    164  C6  SGN d 202      30.490 131.666  -2.450  0.00  0.00     0.227 C 
BRANCH  164  165
ATOM    165  O6  SGN d 202      29.076 131.613  -2.239  0.00  0.00    -0.254 OA
ATOM    166  S2  SGN d 202      28.012 130.500  -2.604  0.00  0.00     0.251 S 
ATOM    167  O5S SGN d 202      26.740 131.037  -2.137  0.00  0.00    -0.572 OA
ATOM    168  O4S SGN d 202      28.399 129.305  -1.885  0.00  0.00    -0.572 OA
ATOM    169  O6S SGN d 202      28.049 130.346  -4.048  0.00  0.00    -0.572 OA
ENDBRANCH  164  165
ENDBRANCH  159  164
BRANCH  172  174
ATOM    174  S1  SGN d 202      29.465 138.199  -0.304  0.00  0.00     0.183 S 
ATOM    175  O2S SGN d 202      28.427 137.842   0.648  0.00  0.00    -0.582 OA
ATOM    176  O1S SGN d 202      28.964 138.306  -1.658  0.00  0.00    -0.582 OA
ATOM    177  O3S SGN d 202      30.180 139.391   0.089  0.00  0.00    -0.582 OA
ENDBRANCH  172  174
ENDBRANCH  157  158
ENDBRANCH  147  157
BRANCH  180  182
ATOM    182  O62 IDS d 203      30.754 132.989   5.311  0.00  0.00    -0.774 OA
ENDBRANCH  180  182
ENDBRANCH  143  144
ENDBRANCH  132  143
BRANCH  134  184
ATOM    184  C6  SGN d 204      30.316 130.685   8.258  0.00  0.00     0.227 C 
BRANCH  184  185
ATOM    185  O6  SGN d 204      30.186 129.880   9.409  0.00  0.00    -0.254 OA
ATOM    186  S2  SGN d 204      29.991 130.355  10.906  0.00  0.00     0.251 S 
ATOM    187  O4S SGN d 204      28.560 130.365  11.177  0.00  0.00    -0.572 OA
ATOM    188  O5S SGN d 204      30.708 129.355  11.689  0.00  0.00    -0.572 OA
ATOM    189  O6S SGN d 204      30.601 131.678  11.000  0.00  0.00    -0.572 OA
ENDBRANCH  184  185
ENDBRANCH  134  184
BRANCH  137  139
ATOM    139  S1  SGN d 204      32.494 125.434   4.275  0.00  0.00     0.183 S 
ATOM    140  O1S SGN d 204      33.701 126.020   4.830  0.00  0.00    -0.582 OA
ATOM    141  O2S SGN d 204      32.000 124.316   5.049  0.00  0.00    -0.582 OA
ATOM    142  O3S SGN d 204      32.650 125.098   2.862  0.00  0.00    -0.582 OA
ENDBRANCH  137  139
ENDBRANCH  128  129
ENDBRANCH  121  128
BRANCH  122  190
ATOM    190  O2  IDS d 205      25.687 128.994   9.539  0.00  0.00    -0.244 OA
ATOM    191  S   IDS d 205      25.106 128.200  10.825  0.00  0.00     0.252 S 
ATOM    192  O3S IDS d 205      25.713 128.855  11.960  0.00  0.00    -0.572 OA
ATOM    193  O1S IDS d 205      23.664 128.389  10.768  0.00  0.00    -0.572 OA
ATOM    194  O2S IDS d 205      25.477 126.802  10.706  0.00  0.00    -0.572 OA
ENDBRANCH  122  190
BRANCH  124  126
ATOM    126  O62 IDS d 205      25.947 125.982   3.740  0.00  0.00    -0.774 OA
ENDBRANCH  124  126
ENDBRANCH  117  118
ENDBRANCH   1  117
BRANCH   3  103
ATOM    103  O3  SGN d 206      23.075 124.063  10.193  0.00  0.00    -0.391 OA
ATOM    104  H   SGN d 206      22.329 123.444  10.168  0.00  0.00     0.210 HD
ENDBRANCH   3  103
BRANCH   4   7
ATOM      7  O4  SGN d 206      25.097 122.418   9.131  0.00  0.00    -0.348 OA
BRANCH   7   8
ATOM      8  C1  IDS d 207      25.134 121.086   9.484  0.00  0.00     0.294 C 
ATOM      9  C2  IDS d 207      26.588 120.847   9.969  0.00  0.00     0.231 C 
ATOM     10  C3  IDS d 207      26.647 119.801  11.056  0.00  0.00     0.185 C 
ATOM     11  C4  IDS d 207      25.697 120.080  12.252  0.00  0.00     0.195 C 
ATOM     12  C5  IDS d 207      24.628 121.149  11.838  0.00  0.00     0.253 C 
ATOM     13  O5  IDS d 207      24.181 120.814  10.503  0.00  0.00    -0.340 OA
ATOM     19  O3  IDS d 207      27.991 119.686  11.505  0.00  0.00    -0.390 OA
ATOM     20  H   IDS d 207      28.042 119.016  12.204  0.00  0.00     0.210 HD
ATOM     99  C6  IDS d 207      23.410 121.210  12.783  0.00  0.00     0.172 C 
ATOM    100  O62 IDS d 207      23.422 121.885  13.795  0.00  0.00    -0.648 OA
BRANCH   9  14
ATOM     14  O2  IDS d 207      27.411 120.378   8.882  0.00  0.00    -0.244 OA
ATOM     15  S   IDS d 207      27.311 118.959   8.110  0.00  0.00     0.252 S 
ATOM     16  O1S IDS d 207      27.873 117.991   9.038  0.00  0.00    -0.572 OA
ATOM     17  O2S IDS d 207      25.920 118.699   7.843  0.00  0.00    -0.572 OA
ATOM     18  O3S IDS d 207      28.101 119.103   6.906  0.00  0.00    -0.572 OA
ENDBRANCH   9  14
BRANCH  11  21
ATOM     21  O4  IDS d 207      24.981 118.908  12.397  0.00  0.00    -0.348 OA
BRANCH  21  22
ATOM     22  C1  SGN d 208      25.174 118.083  13.476  0.00  0.00     0.282 C 
ATOM     23  C2  SGN d 208      25.552 116.666  12.926  0.00  0.00     0.160 C 
ATOM     24  C3  SGN d 208      24.417 116.199  12.003  0.00  0.00     0.173 C 
ATOM     25  C4  SGN d 208      23.111 116.163  12.795  0.00  0.00     0.186 C 
ATOM     26  C5  SGN d 208      22.824 117.609  13.334  0.00  0.00     0.181 C 
ATOM     27  O5  SGN d 208      23.939 118.037  14.186  0.00  0.00    -0.349 OA
ATOM     28  N   SGN d 208      26.820 116.736  12.146  0.00  0.00    -0.189 NA
ATOM     29  H   SGN d 208      26.716 117.519  11.501  0.00  0.00     0.143 HD
ATOM     34  O3  SGN d 208      24.710 114.899  11.513  0.00  0.00    -0.391 OA
ATOM     35  H   SGN d 208      24.798 114.285  12.258  0.00  0.00     0.210 HD
BRANCH  25  36
ATOM     36  O4  SGN d 208      22.080 115.747  11.910  0.00  0.00    -0.348 OA
BRANCH  36  37
ATOM     37  C1  IDS d 209      21.311 114.658  12.275  0.00  0.00     0.294 C 
ATOM     38  O5  IDS d 209      22.089 113.460  12.335  0.00  0.00    -0.340 OA
ATOM     39  C5  IDS d 209      22.166 112.699  11.102  0.00  0.00     0.253 C 
ATOM     40  C4  IDS d 209      20.734 112.103  10.790  0.00  0.00     0.195 C 
ATOM     41  C3  IDS d 209      19.645 113.156  11.112  0.00  0.00     0.185 C 
ATOM     42  C2  IDS d 209      20.180 114.571  11.235  0.00  0.00     0.231 C 
ATOM     43  C6  IDS d 209      23.266 111.630  11.244  0.00  0.00     0.172 C 
ATOM     44  O61 IDS d 209      23.573 110.919  10.304  0.00  0.00    -0.648 OA
ATOM     86  O3  IDS d 209      18.637 113.119  10.106  0.00  0.00    -0.390 OA
ATOM     87  H   IDS d 209      18.294 112.215  10.026  0.00  0.00     0.210 HD
BRANCH  40  47
ATOM     47  O4  IDS d 209      20.544 111.034  11.714  0.00  0.00    -0.348 OA
BRANCH  47  48
ATOM     48  C1  SGN d 210      19.728 109.920  11.399  0.00  0.00     0.282 C 
ATOM     49  O5  SGN d 210      20.437 108.746  11.790  0.00  0.00    -0.349 OA
ATOM     50  C5  SGN d 210      20.713 108.688  13.237  0.00  0.00     0.181 C 
ATOM     51  C4  SGN d 210      19.353 108.744  14.052  0.00  0.00     0.186 C 
ATOM     52  C3  SGN d 210      18.631 110.016  13.704  0.00  0.00     0.173 C 
ATOM     53  C2  SGN d 210      18.352 110.002  12.194  0.00  0.00     0.160 C 
ATOM     78  O3  SGN d 210      17.417 110.068  14.422  0.00  0.00    -0.391 OA
ATOM     79  H   SGN d 210      17.604 110.076  15.374  0.00  0.00     0.210 HD
ATOM     80  N   SGN d 210      17.623 111.211  11.813  0.00  0.00    -0.189 NA
ATOM     81  H   SGN d 210      18.227 111.730  11.176  0.00  0.00     0.143 HD
BRANCH  50  54
ATOM     54  C6  SGN d 210      21.555 107.414  13.479  0.00  0.00     0.227 C 
BRANCH  54  55
ATOM     55  O6  SGN d 210      20.868 106.296  12.978  0.00  0.00    -0.254 OA
ATOM     56  S2  SGN d 210      21.243 105.456  11.742  0.00  0.00     0.251 S 
ATOM     57  O4S SGN d 210      22.662 105.225  11.810  0.00  0.00    -0.572 OA
ATOM     58  O5S SGN d 210      20.463 104.253  11.885  0.00  0.00    -0.572 OA
ATOM     59  O6S SGN d 210      20.853 106.236  10.600  0.00  0.00    -0.572 OA
ENDBRANCH  54  55
ENDBRANCH  50  54
BRANCH  51  60
ATOM     60  O4  SGN d 210      19.572 108.751  15.466  0.00  0.00    -0.348 OA
BRANCH  60  61
ATOM     61  C1  IDS d 211      18.804 107.825  16.190  0.00  0.00     0.294 C 
ATOM     62  O5  IDS d 211      17.728 108.425  16.935  0.00  0.00    -0.343 OA
ATOM     63  C5  IDS d 211      17.205 107.672  18.144  0.00  0.00     0.224 C 
ATOM     64  C4  IDS d 211      17.616 106.111  18.159  0.00  0.00     0.077 C 
ATOM     65  C3  IDS d 211      18.961 105.783  17.454  0.00  0.00     0.156 C 
ATOM     66  C2  IDS d 211      19.709 107.031  17.094  0.00  0.00     0.228 C 
ATOM     67  C6  IDS d 211      15.672 107.882  18.267  0.00  0.00     0.170 C 
ATOM     68  O61 IDS d 211      14.888 107.011  17.895  0.00  0.00    -0.648 OA
ATOM     71  O3  IDS d 211      19.749 105.001  18.319  0.00  0.00    -0.393 OA
ATOM     72  H   IDS d 211      19.930 105.499  19.131  0.00  0.00     0.210 HD
BRANCH  66  73
ATOM     73  O2  IDS d 211      20.892 106.655  16.391  0.00  0.00    -0.244 OA
ATOM     74  S   IDS d 211      22.367 106.468  16.908  0.00  0.00     0.252 S 
ATOM     75  O3S IDS d 211      22.252 106.008  18.273  0.00  0.00    -0.572 OA
ATOM     76  O1S IDS d 211      22.925 105.460  16.019  0.00  0.00    -0.572 OA
ATOM     77  O2S IDS d 211      23.048 107.746  16.784  0.00  0.00    -0.572 OA
ENDBRANCH  66  73
BRANCH  67  69
ATOM     69  O62 IDS d 211      15.199 108.902  18.751  0.00  0.00    -0.774 OA
ENDBRANCH  67  69
ENDBRANCH  60  61
ENDBRANCH  51  60
BRANCH  80  82
ATOM     82  S1  SGN d 210      16.155 111.094  11.083  0.00  0.00     0.183 S 
ATOM     83  O2S SGN d 210      15.636 109.773  11.378  0.00  0.00    -0.582 OA
ATOM     84  O1S SGN d 210      16.354 111.323   9.667  0.00  0.00    -0.582 OA
ATOM     85  O3S SGN d 210      15.370 112.140  11.700  0.00  0.00    -0.582 OA
ENDBRANCH  80  82
ENDBRANCH  47  48
ENDBRANCH  40  47
BRANCH  42  88
ATOM     88  O2  IDS d 209      19.082 115.416  11.641  0.00  0.00    -0.244 OA
ATOM     89  S   IDS d 209      18.097 115.260  12.927  0.00  0.00     0.252 S 
ATOM     90  O3S IDS d 209      18.778 114.386  13.885  0.00  0.00    -0.572 OA
ATOM     91  O1S IDS d 209      17.949 116.613  13.421  0.00  0.00    -0.572 OA
ATOM     92  O2S IDS d 209      16.843 114.714  12.453  0.00  0.00    -0.572 OA
ENDBRANCH  42  88
BRANCH  43  45
ATOM     45  O62 IDS d 209      23.847 111.457  12.298  0.00  0.00    -0.774 OA
ENDBRANCH  43  45
ENDBRANCH  36  37
ENDBRANCH  25  36
BRANCH  26  93
ATOM     93  C6  SGN d 208      21.537 117.719  14.164  0.00  0.00     0.227 C 
BRANCH  93  94
ATOM     94  O6  SGN d 208      21.858 117.680  15.520  0.00  0.00    -0.254 OA
ATOM     95  S2  SGN d 208      21.538 116.534  16.512  0.00  0.00     0.251 S 
ATOM     96  O4S SGN d 208      21.554 115.296  15.754  0.00  0.00    -0.572 OA
ATOM     97  O6S SGN d 208      20.235 116.841  17.074  0.00  0.00    -0.572 OA
ATOM     98  O5S SGN d 208      22.604 116.613  17.491  0.00  0.00    -0.572 OA
ENDBRANCH  93  94
ENDBRANCH  26  93
BRANCH  28  30
ATOM     30  S1  SGN d 208      28.289 116.932  12.882  0.00  0.00     0.183 S 
ATOM     31  O2S SGN d 208      29.246 117.066  11.791  0.00  0.00    -0.582 OA
ATOM     32  O1S SGN d 208      28.523 115.782  13.728  0.00  0.00    -0.582 OA
ATOM     33  O3S SGN d 208      28.184 118.147  13.667  0.00  0.00    -0.582 OA
ENDBRANCH  28  30
ENDBRANCH  21  22
ENDBRANCH  11  21
BRANCH  99  101
ATOM    101  O61 IDS d 207      22.391 120.565  12.532  0.00  0.00    -0.774 OA
ENDBRANCH  99  101
ENDBRANCH   7   8
ENDBRANCH   4   7
BRANCH   5  105
ATOM    105  C6  SGN d 206      25.019 121.773   6.196  0.00  0.00     0.227 C 
BRANCH  105  106
ATOM    106  O6  SGN d 206      23.896 121.049   5.787  0.00  0.00    -0.254 OA
ATOM    107  S2  SGN d 206      23.573 120.601   4.325  0.00  0.00     0.251 S 
ATOM    108  O5S SGN d 206      22.232 120.087   4.395  0.00  0.00    -0.572 OA
ATOM    109  O4S SGN d 206      24.545 119.582   3.961  0.00  0.00    -0.572 OA
ATOM    110  O6S SGN d 206      23.661 121.803   3.512  0.00  0.00    -0.572 OA
ENDBRANCH  105  106
ENDBRANCH   5  105
BRANCH   6  111
ATOM    111  N   SGN d 206      22.054 126.164   8.489  0.00  0.00    -0.189 NA
ATOM    112  H   SGN d 206      22.438 126.228   9.432  0.00  0.00     0.143 HD
BRANCH  111  113
ATOM    113  S1  SGN d 206      20.454 126.616   8.606  0.00  0.00     0.183 S 
ATOM    114  O1S SGN d 206      19.640 125.655   7.880  0.00  0.00    -0.582 OA
ATOM    115  O2S SGN d 206      20.157 126.671  10.047  0.00  0.00    -0.582 OA
ATOM    116  O3S SGN d 206      20.411 127.931   7.981  0.00  0.00    -0.582 OA
ENDBRANCH  111  113
ENDBRANCH   6  111
TORSDOF 45
