REMARK  0 active torsions:
REMARK  status: ('A' for Active; 'I' for Inactive)
REMARK       I    between atoms: O2_3  and  C2_386 
REMARK       I    between atoms: O2_3  and  S_249 
REMARK       I    between atoms: S1_7  and  O1S_367 
REMARK       I    between atoms: S1_7  and  O2S_267 
REMARK       I    between atoms: O61_10  and  C6_299 
REMARK       I    between atoms: S2_18  and  O6_287 
REMARK       I    between atoms: O61_19  and  C6_199 
REMARK       I    between atoms: O61_19  and  O62_209 
REMARK       I    between atoms: C6_22  and  O61_417 
REMARK       I    between atoms: C3_23  and  O3_271 
REMARK       I    between atoms: O3_27  and  C3_414 
REMARK       I    between atoms: C1_30  and  O5_378 
REMARK       I    between atoms: C1_30  and  O1_376 
REMARK       I    between atoms: O2_31  and  C2_365 
REMARK       I    between atoms: O2_31  and  S_91 
REMARK       I    between atoms: O2_32  and  C2_366 
REMARK       I    between atoms: O3_42  and  C3_259 
REMARK       I    between atoms: O3S_44  and  S1_162 
REMARK       I    between atoms: O3S_44  and  S_96 
REMARK       I    between atoms: N_56  and  C2_424 
REMARK       I    between atoms: N_56  and  S1_162 
REMARK       I    between atoms: S1_64  and  N_219 
REMARK       I    between atoms: C3_66  and  O3_233 
REMARK       I    between atoms: O5_70  and  C1_130 
REMARK       I    between atoms: C4_73  and  O1_471 
REMARK       I    between atoms: C3_77  and  O3_444 
REMARK       I    between atoms: C3_78  and  C2_464 
REMARK       I    between atoms: C3_78  and  O3_445 
REMARK       I    between atoms: C1_79  and  O1_133 
REMARK       I    between atoms: C1_81  and  O1_469 
REMARK       I    between atoms: C6_87  and  C5_93 
REMARK       I    between atoms: C6_87  and  O6_171 
REMARK       I    between atoms: S_95  and  O2_205 
REMARK       I    between atoms: C3_97  and  O3_306 
REMARK       I    between atoms: S_104  and  O2_438 
REMARK       I    between atoms: S_105  and  O2_439 
REMARK       I    between atoms: O62_111  and  C6_298 
REMARK       I    between atoms: O62_111  and  C6_299 
REMARK       I    between atoms: O62_112  and  C6_299 
REMARK       I    between atoms: C3_113  and  O3_201 
REMARK       I    between atoms: C3_114  and  O3_202 
REMARK       I    between atoms: C3_114  and  C2_435 
REMARK       I    between atoms: O1_115  and  C4_141 
REMARK       I    between atoms: O1_115  and  C1_448 
REMARK       I    between atoms: O6_117  and  C6_225 
REMARK       I    between atoms: O6_117  and  S2_177 
REMARK       I    between atoms: C6_119  and  C5_347 
REMARK       I    between atoms: C6_119  and  O62_322 
REMARK       I    between atoms: C5_123  and  C6_199 
REMARK       I    between atoms: O61_126  and  O62_440 
REMARK       I    between atoms: C1_129  and  O1_471 
REMARK       I    between atoms: C1_130  and  O1_472 
REMARK       I    between atoms: S2_131  and  O6_296 
REMARK       I    between atoms: S2_131  and  O4S_218 
REMARK       I    between atoms: S2_132  and  O4S_218 
REMARK       I    between atoms: S2_132  and  O6_297 
REMARK       I    between atoms: O1_133  and  C4_247 
REMARK       I    between atoms: O1_144  and  C4_173 
REMARK       I    between atoms: O1_144  and  C1_420 
REMARK       I    between atoms: O1_145  and  C1_421 
REMARK       I    between atoms: C1_158  and  O1_169 
REMARK       I    between atoms: C1_159  and  O5_279 
REMARK       I    between atoms: C1_159  and  O1_170 
REMARK       I    between atoms: S_160  and  O2_373 
REMARK       I    between atoms: S_161  and  O2_374 
REMARK       I    between atoms: S1_162  and  O1S_458 
REMARK       I    between atoms: O1_169  and  C4_334 
REMARK       I    between atoms: O6_171  and  S2_314 
REMARK       I    between atoms: C5_175  and  C6_225 
REMARK       I    between atoms: S2_177  and  O4S_251 
REMARK       I    between atoms: S2_178  and  O4S_251 
REMARK       I    between atoms: O5S_181  and  S2_257 
REMARK       I    between atoms: C4_189  and  O4_344 
REMARK       I    between atoms: C2_193  and  O2_205 
REMARK       I    between atoms: N_203  and  C2_463 
REMARK       I    between atoms: N_203  and  S1_308 
REMARK       I    between atoms: N_203  and  N_204 
REMARK       I    between atoms: C3_210  and  O3_223 
REMARK       I    between atoms: C6_215  and  C5_355 
REMARK       I    between atoms: C6_215  and  O62_440 
REMARK       I    between atoms: N_219  and  C2_434 
REMARK       I    between atoms: N_220  and  C2_435 
REMARK       I    between atoms: S1_236  and  N_413 
REMARK       I    between atoms: O5_256  and  C5_395 
REMARK       I    between atoms: S2_257  and  O6_396 
REMARK       I    between atoms: S2_257  and  O6S_353 
REMARK       I    between atoms: C3_265  and  O3_318 
REMARK       I    between atoms: C4_269  and  O1_357 
REMARK       I    between atoms: O5_279  and  C5_411 
REMARK       I    between atoms: C6_284  and  C5_363 
REMARK       I    between atoms: C6_284  and  O6_396 
REMARK       I    between atoms: O5_293  and  C1_449 
REMARK       I    between atoms: C2_294  and  O2_371 
REMARK       I    between atoms: O6_296  and  C6_426 
REMARK       I    between atoms: O6_297  and  C6_427 
REMARK       I    between atoms: C6_298  and  C5_410 
REMARK       I    between atoms: C6_299  and  C5_411 
REMARK       I    between atoms: C6_302  and  C5_394 
REMARK       I    between atoms: C6_302  and  C5_395 
REMARK       I    between atoms: C6_303  and  O61_341 
REMARK       I    between atoms: O3_310  and  C3_392 
REMARK       I    between atoms: O3_312  and  C3_428 
REMARK       I    between atoms: S_316  and  O2_371 
REMARK       I    between atoms: C3_330  and  O3_369 
REMARK       I    between atoms: O4_344  and  O4_345 
REMARK       I    between atoms: O1_357  and  C1_456 
REMARK       I    between atoms: C2_366  and  C1_449 
REMARK       I    between atoms: O2_373  and  C2_381 
REMARK       I    between atoms: O2_374  and  C2_382 
REMARK       I    between atoms: O5_378  and  C5_407 
REMARK       I    between atoms: C2_379  and  O2_438 
REMARK       I    between atoms: O5_385  and  C1_421 
REMARK       I    between atoms: C5_406  and  C6_426 
REMARK       I    between atoms: C5_407  and  C6_427 
REMARK       I    between atoms: C1_421  and  C2_464 
REMARK       I    between atoms: O1_469  and  O1_470 
ROOT
ATOM      1  O2  IDS d   6      -9.893  -6.484   1.732  0.00  0.00    -0.406 OA
ATOM      2  C2  IDS d   6      -9.093  -5.499   1.110  0.00  0.00     0.197 C 
ATOM      3  H   IDS d   6     -10.643  -6.702   1.157  0.00  0.00     0.208 HD
ENDROOT
TORSDOF 116
