REMARK  0 active torsions:
REMARK  status: ('A' for Active; 'I' for Inactive)
REMARK       I    between atoms: C5_1  and  C6_23 
REMARK       I    between atoms: S2_5  and  O6_7 
REMARK       I    between atoms: O1_6  and  C1_35 
REMARK       I    between atoms: O6_7  and  C6_21 
REMARK       I    between atoms: O2_9  and  C2_28 
REMARK       I    between atoms: O2_9  and  S_13 
REMARK       I    between atoms: C3_10  and  O3_20 
REMARK       I    between atoms: C1_11  and  O4_12 
REMARK       I    between atoms: O4_12  and  C4_19 
REMARK       I    between atoms: C2_15  and  N_29 
REMARK       I    between atoms: C5_17  and  C6_21 
REMARK       I    between atoms: C6_23  and  O61_33 
REMARK       I    between atoms: O3_24  and  C3_26 
REMARK       I    between atoms: S1_27  and  N_29 
ROOT
ATOM      1  C5  IDU d1623      62.878  43.623  37.150  0.00  0.00     0.224 C 
ATOM      2  O3S IDU d1623      66.361  41.898  32.890  0.00  0.00    -0.572 OA
ATOM      3  O1S IDU d1623      67.606  43.402  34.256  0.00  0.00    -0.572 OA
ATOM      4  O5  IDU d1623      63.763  42.474  37.400  0.00  0.00    -0.343 OA
ATOM      5  O2  IDU d1623      65.419  42.530  35.224  0.00  0.00    -0.244 OA
ATOM      6  C3  IDU d1623      63.172  43.217  34.688  0.00  0.00     0.156 C 
ATOM      7  C1  IDU d1623      63.667  41.421  36.387  0.00  0.00     0.294 C 
ATOM      8  S   IDU d1623      66.315  42.973  33.809  0.00  0.00     0.252 S 
ATOM      9  C4  IDU d1623      63.266  44.265  35.808  0.00  0.00     0.077 C 
ATOM     10  O62 IDU d1623      63.810  44.450  39.153  0.00  0.00    -0.648 OA
ATOM     11  O3  IDU d1623      61.852  42.761  34.584  0.00  0.00    -0.393 OA
ATOM     12  C6  IDU d1623      63.013  44.665  38.227  0.00  0.00     0.170 C 
ATOM     13  C2  IDU d1623      64.105  42.053  35.056  0.00  0.00     0.228 C 
ATOM     14  O61 IDU d1623      62.312  45.693  38.131  0.00  0.00    -0.774 OA
ATOM     15  O2S IDU d1623      65.666  44.071  33.109  0.00  0.00    -0.572 OA
ATOM     16  H   IDU d1623      61.576  42.375  35.430  0.00  0.00     0.210 HD
ATOM     17  H   IDU d1623      61.728  45.796  37.406  0.00  0.00     0.167 HD
ATOM     18  O5  SGN d5702      64.286  37.100  38.475  0.00  0.00    -0.350 OA
ATOM     19  S2  SGN d5702      66.458  37.359  34.163  0.00  0.00     0.251 S 
ATOM     20  O1  SGN d5702      61.982  36.738  38.448  0.00  0.00    -0.369 OA
ATOM     21  O6  SGN d5702      65.587  38.165  35.423  0.00  0.00    -0.254 OA
ATOM     22  O4  SGN d5702      64.425  40.270  36.697  0.00  0.00    -0.348 OA
ATOM     23  C2  SGN d5702      62.888  38.624  39.694  0.00  0.00     0.160 C 
ATOM     24  C5  SGN d5702      64.412  37.972  37.378  0.00  0.00     0.181 C 
ATOM     25  O6S SGN d5702      67.736  38.007  34.114  0.00  0.00    -0.572 OA
ATOM     26  C4  SGN d5702      64.270  39.426  37.871  0.00  0.00     0.186 C 
ATOM     27  C6  SGN d5702      65.750  37.713  36.759  0.00  0.00     0.227 C 
ATOM     28  O1S SGN d5702      62.769  37.562  42.482  0.00  0.00    -0.582 OA
ATOM     29  O3  SGN d5702      62.692  40.878  39.000  0.00  0.00    -0.391 OA
ATOM     30  O4S SGN d5702      65.804  37.506  32.903  0.00  0.00    -0.572 OA
ATOM     31  C3  SGN d5702      62.867  39.567  38.520  0.00  0.00     0.173 C 
ATOM     32  S1  SGN d5702      61.891  38.667  42.152  0.00  0.00     0.183 S 
ATOM     33  N   SGN d5702      61.652  38.688  40.402  0.00  0.00    -0.189 NA
ATOM     34  O3S SGN d5702      62.442  39.969  42.476  0.00  0.00    -0.582 OA
ATOM     35  O5S SGN d5702      66.543  35.964  34.490  0.00  0.00    -0.572 OA
ATOM     36  O2S SGN d5702      60.636  38.422  42.784  0.00  0.00    -0.582 OA
ATOM     37  C1  SGN d5702      63.068  37.194  39.219  0.00  0.00     0.278 C 
ATOM     38  H   SGN d5702      62.145  35.823  38.170  0.00  0.00     0.212 HD
ATOM     39  H   SGN d5702      61.814  40.960  39.404  0.00  0.00     0.210 HD
ATOM     40  H   SGN d5702      61.079  37.886  40.138  0.00  0.00     0.143 HD
ENDROOT
TORSDOF 14
