REMARK 7 active torsions
REMARK    1  A    between atoms: atom5  and  atom_
REMARK    2  A    between atoms: atom7  and  atom_
REMARK    3  A    between atoms: atom2  and  atom_
REMARK    4  A    between atoms: atom3  and  atom_
REMARK    5  A    between atoms: atom1  and  atom_
REMARK    6  A    between atoms: atom1  and  atom4
REMARK    7  A    between atoms: atom6  and  atom_
ROOT
ATOM      1  C5  ASG d 523      32.281  18.261  -5.825  0.00  0.00     0.181 C 
ATOM      2  C2  ASG d 523      33.706  15.980  -4.815  0.00  0.00     0.171 C 
ATOM      3  C4  ASG d 523      31.625  16.892  -5.812  0.00  0.00     0.207 C 
ATOM      4  O5  ASG d 523      33.183  18.267  -4.711  0.00  0.00    -0.349 OA
ATOM      5  C3  ASG d 523      32.698  15.818  -5.951  0.00  0.00     0.185 C 
ATOM      6  C1  ASG d 523      34.310  17.384  -4.897  0.00  0.00     0.282 C 
ENDROOT
BRANCH   1  34
ATOM     34  C6  ASG d 523      31.231  19.340  -5.638  0.00  0.00     0.199 C 
ATOM     35  O6  ASG d 523      31.871  20.602  -5.619  0.00  0.00    -0.398 OA
ATOM     36  H   ASG d 523      32.509  20.630  -4.889  0.00  0.00     0.209 HD
ENDBRANCH   1  34
BRANCH   2  22
ATOM     22  N   ASG d 523      34.728  14.946  -4.897  0.00  0.00    -0.349 N 
ATOM     23  C7  ASG d 523      34.744  13.872  -4.097  0.00  0.00     0.214 C 
ATOM     24  O7  ASG d 523      34.088  13.736  -3.100  0.00  0.00    -0.274 OA
ATOM     25  C8  ASG d 523      35.646  12.740  -4.476  0.00  0.00     0.117 C 
ATOM     26  H   ASG d 523      35.439  15.041  -5.571  0.00  0.00     0.163 HD
ENDBRANCH   2  22
BRANCH   3  27
ATOM     27  O4  ASG d 523      31.025  16.647  -4.528  0.00  0.00    -0.246 OA
ATOM     28  S   ASG d 523      29.397  16.483  -4.408  0.00  0.00     0.252 S 
ATOM     29  OSB ASG d 523      28.932  16.558  -2.928  0.00  0.00    -0.572 OA
ATOM     30  OSA ASG d 523      28.867  17.585  -5.166  0.00  0.00    -0.572 OA
ATOM     31  OSC ASG d 523      29.047  15.227  -4.991  0.00  0.00    -0.572 OA
ENDBRANCH   3  27
BRANCH   5   7
ATOM      7  O3  ASG d 523      32.052  14.551  -5.802  0.00  0.00    -0.348 OA
BRANCH   7   8
ATOM      8  C1  GCD d 525      32.483  13.631  -6.823  0.00  0.00     0.298 C 
ATOM      9  O5  GCD d 525      32.118  14.071  -8.131  0.00  0.00    -0.311 OA
ATOM     10  C5  GCD d 525      30.715  13.984  -8.518  0.00  0.00     0.144 C 
ATOM     11  C4  GCD d 525      29.889  13.180  -7.833  0.00  0.00     0.051 C 
ATOM     12  C3  GCD d 525      30.319  12.310  -6.664  0.00  0.00     0.177 C 
ATOM     13  C2  GCD d 525      31.853  12.259  -6.558  0.00  0.00     0.206 C 
ATOM     14  C6  GCD d 525      30.205  14.760  -9.660  0.00  0.00     0.200 C 
ATOM     15  O6A GCD d 525      29.075  14.464 -10.089  0.00  0.00    -0.645 OA
ATOM     18  O3  GCD d 525      29.759  12.761  -5.433  0.00  0.00    -0.389 OA
ATOM     19  H   GCD d 525      30.055  12.183  -4.712  0.00  0.00     0.210 HD
ATOM     20  O2  GCD d 525      32.376  11.334  -7.511  0.00  0.00    -0.388 OA
ATOM     21  H   GCD d 525      32.148  11.629  -8.406  0.00  0.00     0.210 HD
BRANCH  14  16
ATOM     16  O6B GCD d 525      30.894  15.667 -10.174  0.00  0.00    -0.771 OA
ATOM     17  H   GCD d 525      31.741  15.865  -9.827  0.00  0.00     0.167 HD
ENDBRANCH  14  16
ENDBRANCH   7   8
ENDBRANCH   5   7
BRANCH   6  32
ATOM     32  O1  ASG d 523      35.065  17.551  -3.737  0.00  0.00    -0.369 OA
ATOM     33  H   ASG d 523      35.852  16.986  -3.779  0.00  0.00     0.212 HD
ENDBRANCH   6  32
TORSDOF 7
