REMARK 12 active torsions
REMARK    1  A    between atoms: atom5  and  atom_
REMARK    2  A    between atoms: atom7  and  atom_
REMARK    3  A    between atoms: atom9  and  atom_
REMARK    4  A    between atoms: atom4  and  atom_
REMARK    5  A    between atoms: atom2  and  atom8
REMARK    6  A    between atoms: atom3  and  atom5
REMARK    7  A    between atoms: atom1  and  atom5
REMARK    8  A    between atoms: atom2  and  atom2
REMARK    9  A    between atoms: atom3  and  atom_
REMARK    10  A    between atoms: atom3  and  atom0
REMARK    11  A    between atoms: atom2  and  atom_
REMARK    12  A    between atoms: atom6  and  atom_
ROOT
ATOM      1  O5  H1S d 501      38.044   0.652  10.771  0.00  0.00    -0.350 OA
ATOM      2  C8  H1S d 501      35.915   1.771  10.981  0.00  0.00     0.157 C 
ATOM      3  C4  H1S d 501      36.364   2.410  12.296  0.00  0.00     0.173 C 
ATOM      4  C2  H1S d 501      38.569   1.297  11.943  0.00  0.00     0.181 C 
ATOM      5  C1  H1S d 501      37.456   1.566  12.960  0.00  0.00     0.186 C 
ATOM      6  C10 H1S d 501      37.128   1.516  10.082  0.00  0.00     0.278 C 
ENDROOT
BRANCH   2  35
ATOM     35  N14 H1S d 501      34.970   2.672  10.307  0.00  0.00    -0.210 NA
ATOM     36  H   H1S d 501      35.467   3.507   9.999  0.00  0.00     0.140 HD
BRANCH  35  37
ATOM     37  S20 H1S d 501      34.294   1.945   9.013  0.00  0.00     0.156 S 
ATOM     38  O28 H1S d 501      35.195   2.099   7.824  0.00  0.00    -0.296 OA
ATOM     39  H   H1S d 501      36.050   1.681   8.010  0.00  0.00     0.231 HD
ATOM     40  O29 H1S d 501      34.087   0.487   9.296  0.00  0.00    -0.296 OA
ATOM     41  H   H1S d 501      34.942   0.069   9.482  0.00  0.00     0.231 HD
ATOM     42  O30 H1S d 501      32.971   2.591   8.725  0.00  0.00    -0.296 OA
ATOM     43  H   H1S d 501      33.105   3.534   8.542  0.00  0.00     0.231 HD
ENDBRANCH  35  37
ENDBRANCH   2  35
BRANCH   3  26
ATOM     26  O9  H1S d 501      35.238   2.504  13.173  0.00  0.00    -0.391 OA
ATOM     27  H   H1S d 501      34.545   3.038  12.754  0.00  0.00     0.210 HD
ENDBRANCH   3  26
BRANCH   4  28
ATOM     28  C6  H1S d 501      39.612   0.377  12.580  0.00  0.00     0.226 C 
BRANCH  28  29
ATOM     29  O11 H1S d 501      40.692   0.131  11.676  0.00  0.00    -0.261 OA
ATOM     30  S16 H1S d 501      41.812  -0.653  12.095  0.00  0.00     0.240 S 
ATOM     31  O21 H1S d 501      42.272  -0.185  13.444  0.00  0.00    -0.579 OA
ATOM     32  O22 H1S d 501      41.408  -2.096  12.177  0.00  0.00    -0.579 OA
BRANCH  30  33
ATOM     33  O23 H1S d 501      42.929  -0.501  11.106  0.00  0.00    -0.274 OA
ATOM     34  H   H1S d 501      43.190   0.432  11.053  0.00  0.00     0.234 HD
ENDBRANCH  30  33
ENDBRANCH  28  29
ENDBRANCH   4  28
BRANCH   5   7
ATOM      7  O3  H1S d 501      38.017   2.292  14.084  0.00  0.00    -0.348 OA
BRANCH   7   8
ATOM      8  C7  H1S d 501      37.192   2.098  15.262  0.00  0.00     0.300 C 
ATOM      9  C12 H1S d 501      38.063   1.912  16.507  0.00  0.00     0.232 C 
ATOM     10  C17 H1S d 501      39.073   3.059  16.585  0.00  0.00     0.179 C 
ATOM     11  C24 H1S d 501      38.375   4.372  16.223  0.00  0.00     0.051 C 
ATOM     12  C19 H1S d 501      37.084   4.393  15.698  0.00  0.00     0.144 C 
ATOM     13  O13 H1S d 501      36.368   3.255  15.484  0.00  0.00    -0.311 OA
ATOM     20  O25 H1S d 501      40.139   2.819  15.661  0.00  0.00    -0.389 OA
ATOM     21  H   H1S d 501      40.779   3.546  15.710  0.00  0.00     0.210 HD
ATOM     22  C27 H1S d 501      36.445   5.743  15.364  0.00  0.00     0.200 C 
ATOM     23  O34 H1S d 501      35.305   5.741  14.856  0.00  0.00    -0.645 OA
BRANCH   9  14
ATOM     14  O18 H1S d 501      37.215   1.975  17.658  0.00  0.00    -0.250 OA
ATOM     15  S26 H1S d 501      37.496   0.887  18.544  0.00  0.00     0.241 S 
ATOM     16  O32 H1S d 501      37.316  -0.412  17.814  0.00  0.00    -0.579 OA
ATOM     17  O31 H1S d 501      36.554   0.941  19.709  0.00  0.00    -0.579 OA
BRANCH  15  18
ATOM     18  O33 H1S d 501      38.908   0.992  19.040  0.00  0.00    -0.274 OA
ATOM     19  H   H1S d 501      39.096   0.253  19.640  0.00  0.00     0.234 HD
ENDBRANCH  15  18
ENDBRANCH   9  14
BRANCH  22  24
ATOM     24  O35 H1S d 501      37.102   6.778  15.617  0.00  0.00    -0.771 OA
ATOM     25  H   H1S d 501      37.955   6.710  16.000  0.00  0.00     0.167 HD
ENDBRANCH  22  24
ENDBRANCH   7   8
ENDBRANCH   5   7
BRANCH   6  44
ATOM     44  O15 H1S d 501      37.780   2.752   9.775  0.00  0.00    -0.369 OA
ATOM     45  H   H1S d 501      38.546   2.581   9.206  0.00  0.00     0.212 HD
ENDBRANCH   6  44
TORSDOF 12
