REMARK 22 active torsions
REMARK    1  A    between atoms: atom1  and  atom_
REMARK    2  A    between atoms: atom7  and  atom_
REMARK    3  A    between atoms: atom1  and  atom1
REMARK    4  A    between atoms: atom1  and  atom8
REMARK    5  A    between atoms: atom2  and  atom0
REMARK    6  A    between atoms: atom2  and  atom1
REMARK    7  A    between atoms: atom2  and  atom3
REMARK    8  A    between atoms: atom3  and  atom3
REMARK    9  A    between atoms: atom2  and  atom4
REMARK    10  A    between atoms: atom6  and  atom_
REMARK    11  A    between atoms: atom4  and  atom_
REMARK    12  A    between atoms: atom6  and  atom4
REMARK    13  A    between atoms: atom6  and  atom8
REMARK    14  A    between atoms: atom7  and  atom5
REMARK    15  A    between atoms: atom7  and  atom8
REMARK    16  A    between atoms: atom7  and  atom9
REMARK    17  A    between atoms: atom8  and  atom1
REMARK    18  A    between atoms: atom5  and  atom_
REMARK    19  A    between atoms: atom2  and  atom_
REMARK    20  A    between atoms: atom1  and  atom4
REMARK    21  A    between atoms: atom4  and  atom6
REMARK    22  A    between atoms: atom7  and  atom1
ROOT
ATOM      1  C1  ASG d 304      14.856  36.655  51.100  0.00  0.00     0.286 C 
ATOM      2  C4  ASG d 304      13.610  37.102  53.667  0.00  0.00     0.207 C 
ATOM      3  O5  ASG d 304      15.402  37.612  52.055  0.00  0.00    -0.349 OA
ATOM      4  C3  ASG d 304      13.004  36.117  52.646  0.00  0.00     0.185 C 
ATOM      5  C5  ASG d 304      14.368  38.207  52.895  0.00  0.00     0.181 C 
ATOM      6  C2  ASG d 304      14.114  35.513  51.802  0.00  0.00     0.171 C 
ENDROOT
BRANCH   1   7
ATOM      7  O4  BDP d 303      15.899  36.136  50.349  0.00  0.00    -0.348 OA
BRANCH   7   8
ATOM      8  C4  BDP d 303      16.525  36.966  49.431  0.00  0.00     0.195 C 
ATOM      9  C5  BDP d 303      16.245  36.444  47.996  0.00  0.00     0.253 C 
ATOM     10  O5  BDP d 303      16.945  37.286  47.038  0.00  0.00    -0.340 OA
ATOM     11  C1  BDP d 303      18.379  37.317  47.267  0.00  0.00     0.292 C 
ATOM     12  C2  BDP d 303      18.708  37.829  48.660  0.00  0.00     0.204 C 
ATOM     13  C3  BDP d 303      18.039  36.933  49.684  0.00  0.00     0.183 C 
ATOM     14  C6  BDP d 303      14.765  36.444  47.620  0.00  0.00     0.172 C 
ATOM     15  O6A BDP d 303      14.359  35.375  47.109  0.00  0.00    -0.648 OA
ATOM     55  O2  BDP d 303      20.128  37.813  48.835  0.00  0.00    -0.388 OA
ATOM     56  H   BDP d 303      20.458  36.908  48.721  0.00  0.00     0.210 HD
ATOM     57  O3  BDP d 303      18.333  37.427  51.001  0.00  0.00    -0.390 OA
ATOM     58  H   BDP d 303      19.291  37.401  51.149  0.00  0.00     0.210 HD
BRANCH  11  18
ATOM     18  O3  ASG d 302      18.957  38.150  46.325  0.00  0.00    -0.348 OA
BRANCH  18  19
ATOM     19  C3  ASG d 302      18.842  37.701  45.023  0.00  0.00     0.185 C 
ATOM     20  C4  ASG d 302      18.083  38.757  44.202  0.00  0.00     0.207 C 
ATOM     21  C5  ASG d 302      18.008  38.259  42.744  0.00  0.00     0.181 C 
ATOM     22  O5  ASG d 302      19.348  38.079  42.229  0.00  0.00    -0.349 OA
ATOM     23  C1  ASG d 302      20.119  37.134  43.006  0.00  0.00     0.286 C 
ATOM     24  C2  ASG d 302      20.245  37.565  44.460  0.00  0.00     0.171 C 
BRANCH  20  25
ATOM     25  O4  ASG d 302      18.823  39.993  44.229  0.00  0.00    -0.246 OA
ATOM     26  S   ASG d 302      18.056  41.330  44.663  0.00  0.00     0.252 S 
ATOM     27  OSB ASG d 302      17.283  41.819  43.538  0.00  0.00    -0.572 OA
ATOM     28  OSA ASG d 302      17.171  41.060  45.781  0.00  0.00    -0.572 OA
ATOM     29  OSC ASG d 302      19.027  42.329  45.048  0.00  0.00    -0.572 OA
ENDBRANCH  20  25
BRANCH  21  30
ATOM     30  C6  ASG d 302      17.294  39.214  41.822  0.00  0.00     0.199 C 
ATOM     31  O6  ASG d 302      16.917  38.558  40.615  0.00  0.00    -0.398 OA
ATOM     32  H   ASG d 302      17.711  38.230  40.164  0.00  0.00     0.209 HD
ENDBRANCH  21  30
BRANCH  23  33
ATOM     33  O4  BDP d 301      21.364  37.047  42.449  0.00  0.00    -0.348 OA
BRANCH  33  34
ATOM     34  C4  BDP d 301      21.624  36.395  41.259  0.00  0.00     0.195 C 
ATOM     35  C3  BDP d 301      21.828  37.464  40.156  0.00  0.00     0.183 C 
ATOM     36  C2  BDP d 301      22.292  36.774  38.882  0.00  0.00     0.204 C 
ATOM     37  C1  BDP d 301      23.590  36.092  39.202  0.00  0.00     0.289 C 
ATOM     38  O5  BDP d 301      23.447  35.105  40.269  0.00  0.00    -0.340 OA
ATOM     39  C5  BDP d 301      22.948  35.671  41.502  0.00  0.00     0.253 C 
ATOM     40  O3  BDP d 301      20.595  38.138  39.896  0.00  0.00    -0.390 OA
ATOM     41  H   BDP d 301      19.931  37.495  39.601  0.00  0.00     0.210 HD
ATOM     42  O2  BDP d 301      22.522  37.715  37.836  0.00  0.00    -0.388 OA
ATOM     43  H   BDP d 301      23.201  38.349  38.115  0.00  0.00     0.210 HD
ATOM     44  O1  BDP d 301      24.159  35.362  38.010  0.00  0.00    -0.368 OA
ATOM     45  H   BDP d 301      23.554  34.651  37.747  0.00  0.00     0.212 HD
ATOM     46  C6  BDP d 301      22.856  34.560  42.540  0.00  0.00     0.172 C 
ATOM     47  O6A BDP d 301      23.381  34.827  43.643  0.00  0.00    -0.648 OA
BRANCH  46  48
ATOM     48  O6B BDP d 301      22.271  33.521  42.162  0.00  0.00    -0.774 OA
ATOM     49  H   BDP d 301      21.925  33.468  41.293  0.00  0.00     0.167 HD
ENDBRANCH  46  48
ENDBRANCH  33  34
ENDBRANCH  23  33
BRANCH  24  50
ATOM     50  N   ASG d 302      21.013  36.541  45.229  0.00  0.00    -0.349 N 
ATOM     51  C7  ASG d 302      22.131  36.883  45.985  0.00  0.00     0.214 C 
ATOM     52  C8  ASG d 302      22.746  35.696  46.689  0.00  0.00     0.117 C 
ATOM     53  O7  ASG d 302      22.580  38.014  46.084  0.00  0.00    -0.274 OA
ATOM     54  H   ASG d 302      20.722  35.601  45.201  0.00  0.00     0.163 HD
ENDBRANCH  24  50
ENDBRANCH  18  19
ENDBRANCH  11  18
BRANCH  14  16
ATOM     16  O6B BDP d 303      14.141  37.496  47.866  0.00  0.00    -0.774 OA
ATOM     17  H   BDP d 303      14.585  38.224  48.256  0.00  0.00     0.167 HD
ENDBRANCH  14  16
ENDBRANCH   7   8
ENDBRANCH   1   7
BRANCH   2  102
ATOM    102  O4  ASG d 304      14.532  36.419  54.531  0.00  0.00    -0.246 OA
ATOM    103  S   ASG d 304      14.191  36.442  56.090  0.00  0.00     0.252 S 
ATOM    104  OSA ASG d 304      12.845  35.935  56.302  0.00  0.00    -0.572 OA
ATOM    105  OSB ASG d 304      14.268  37.802  56.593  0.00  0.00    -0.572 OA
ATOM    106  OSC ASG d 304      15.144  35.609  56.795  0.00  0.00    -0.572 OA
ENDBRANCH   2  102
BRANCH   4  64
ATOM     64  O3  ASG d 304      12.303  35.081  53.315  0.00  0.00    -0.348 OA
BRANCH  64  65
ATOM     65  C1  BDP d 305      10.940  34.930  52.979  0.00  0.00     0.292 C 
ATOM     66  O5  BDP d 305      10.826  34.740  51.536  0.00  0.00    -0.340 OA
ATOM     67  C5  BDP d 305       9.445  34.609  51.079  0.00  0.00     0.253 C 
ATOM     68  C4  BDP d 305       8.669  35.881  51.492  0.00  0.00     0.195 C 
ATOM     69  C3  BDP d 305       8.691  36.009  53.027  0.00  0.00     0.183 C 
ATOM     70  C2  BDP d 305      10.143  36.161  53.436  0.00  0.00     0.204 C 
ATOM     71  C6  BDP d 305       9.467  34.387  49.573  0.00  0.00     0.172 C 
ATOM     72  O6A BDP d 305       8.694  33.485  49.167  0.00  0.00    -0.648 OA
ATOM     95  O3  BDP d 305       7.977  37.173  53.449  0.00  0.00    -0.390 OA
ATOM     96  H   BDP d 305       7.045  37.091  53.194  0.00  0.00     0.210 HD
ATOM     97  O2  BDP d 305      10.271  36.282  54.855  0.00  0.00    -0.388 OA
ATOM     98  H   BDP d 305       9.772  37.056  55.160  0.00  0.00     0.210 HD
BRANCH  68  75
ATOM     75  O4  BDP d 305       7.378  35.855  51.003  0.00  0.00    -0.348 OA
BRANCH  75  76
ATOM     76  C1  ASG d 306       6.718  36.695  50.111  0.00  0.00     0.283 C 
ATOM     77  O5  ASG d 306       6.833  38.071  50.544  0.00  0.00    -0.349 OA
ATOM     78  C5  ASG d 306       6.138  39.010  49.667  0.00  0.00     0.178 C 
ATOM     79  C4  ASG d 306       4.617  38.681  49.625  0.00  0.00     0.178 C 
ATOM     80  C3  ASG d 306       4.399  37.230  49.064  0.00  0.00     0.066 C 
ATOM     81  C2  ASG d 306       5.282  36.274  50.040  0.00  0.00     0.142 C 
BRANCH  78  82
ATOM     82  C6  ASG d 306       6.400  40.396  50.214  0.00  0.00     0.198 C 
ATOM     83  O6  ASG d 306       7.801  40.633  50.342  0.00  0.00    -0.398 OA
ATOM     84  H   ASG d 306       8.184  39.986  50.955  0.00  0.00     0.209 HD
ENDBRANCH  78  82
BRANCH  79  85
ATOM     85  O4  ASG d 306       4.113  38.724  50.961  0.00  0.00    -0.249 OA
ATOM     86  S   ASG d 306       2.813  39.597  51.221  0.00  0.00     0.252 S 
ATOM     87  OSC ASG d 306       1.729  39.117  50.393  0.00  0.00    -0.572 OA
ATOM     88  OSB ASG d 306       2.447  39.492  52.622  0.00  0.00    -0.572 OA
ATOM     89  OSA ASG d 306       3.096  40.984  50.898  0.00  0.00    -0.572 OA
ENDBRANCH  79  85
BRANCH  81  90
ATOM     90  N   ASG d 306       5.222  34.846  49.595  0.00  0.00    -0.352 N 
ATOM     91  C7  ASG d 306       4.984  33.813  50.505  0.00  0.00     0.214 C 
ATOM     92  O7  ASG d 306       4.805  33.972  51.709  0.00  0.00    -0.274 OA
ATOM     93  C8  ASG d 306       4.978  32.454  49.851  0.00  0.00     0.117 C 
ATOM     94  H   ASG d 306       5.353  34.631  48.643  0.00  0.00     0.163 HD
ENDBRANCH  81  90
ENDBRANCH  75  76
ENDBRANCH  68  75
BRANCH  71  73
ATOM     73  O6B BDP d 305      10.239  35.123  48.930  0.00  0.00    -0.774 OA
ATOM     74  H   BDP d 305      10.761  35.759  49.378  0.00  0.00     0.167 HD
ENDBRANCH  71  73
ENDBRANCH  64  65
ENDBRANCH   4  64
BRANCH   5  99
ATOM     99  C6  ASG d 304      15.026  39.217  53.803  0.00  0.00     0.199 C 
ATOM    100  O6  ASG d 304      15.326  40.418  53.090  0.00  0.00    -0.398 OA
ATOM    101  H   ASG d 304      15.936  40.218  52.362  0.00  0.00     0.209 HD
ENDBRANCH   5  99
BRANCH   6  59
ATOM     59  N   ASG d 304      13.533  34.573  50.786  0.00  0.00    -0.349 N 
ATOM     60  C7  ASG d 304      14.227  33.467  50.317  0.00  0.00     0.214 C 
ATOM     61  O7  ASG d 304      15.352  33.159  50.675  0.00  0.00    -0.274 OA
ATOM     62  C8  ASG d 304      13.440  32.671  49.301  0.00  0.00     0.117 C 
ATOM     63  H   ASG d 304      12.628  34.747  50.440  0.00  0.00     0.163 HD
ENDBRANCH   6  59
TORSDOF 22
