REMARK 20 active torsions
REMARK    1  A    between atoms: atom6  and  atom_
REMARK    2  A    between atoms: atom7  and  atom_
REMARK    3  A    between atoms: atom1  and  atom1
REMARK    4  A    between atoms: atom2  and  atom2
REMARK    5  A    between atoms: atom1  and  atom3
REMARK    6  A    between atoms: atom3  and  atom9
REMARK    7  A    between atoms: atom5  and  atom_
REMARK    8  A    between atoms: atom4  and  atom_
REMARK    9  A    between atoms: atom5  and  atom6
REMARK    10  A    between atoms: atom6  and  atom0
REMARK    11  A    between atoms: atom7  and  atom1
REMARK    12  A    between atoms: atom6  and  atom1
REMARK    13  A    between atoms: atom8  and  atom6
REMARK    14  A    between atoms: atom1  and  atom6
REMARK    15  A    between atoms: atom3  and  atom5
REMARK    16  A    between atoms: atom1  and  atom_
REMARK    17  A    between atoms: atom5  and  atom0
REMARK    18  A    between atoms: atom2  and  atom_
REMARK    19  A    between atoms: atom6  and  atom3
REMARK    20  A    between atoms: atom7  and  atom8
ROOT
ATOM      1  C5  IDS d 503       6.490  19.912 -22.380  0.00  0.00     0.253 C 
ATOM      2  C3  IDS d 503       6.299  21.366 -20.318  0.00  0.00     0.185 C 
ATOM      3  O5  IDS d 503       6.856  21.082 -23.125  0.00  0.00    -0.340 OA
ATOM      4  C4  IDS d 503       6.949  20.087 -20.914  0.00  0.00     0.195 C 
ATOM      5  C2  IDS d 503       6.362  22.598 -21.265  0.00  0.00     0.231 C 
ATOM      6  C1  IDS d 503       6.178  22.283 -22.775  0.00  0.00     0.294 C 
ENDROOT
BRANCH   1  50
ATOM     50  C6  IDS d 503       7.046  18.679 -23.086  0.00  0.00     0.172 C 
ATOM     51  O61 IDS d 503       8.031  18.738 -23.791  0.00  0.00    -0.648 OA
BRANCH  50  52
ATOM     52  O62 IDS d 503       6.510  17.602 -22.958  0.00  0.00    -0.774 OA
ENDBRANCH  50  52
ENDBRANCH   1  50
BRANCH   2  54
ATOM     54  O3  IDS d 503       4.942  21.079 -20.034  0.00  0.00    -0.390 OA
ATOM     55  H   IDS d 503       4.481  20.850 -20.856  0.00  0.00     0.210 HD
ENDBRANCH   2  54
BRANCH   4  56
ATOM     56  O1  SGN d 504       8.364  20.241 -20.761  0.00  0.00    -0.348 OA
BRANCH  56  57
ATOM     57  C1  SGN d 504       9.001  19.494 -19.747  0.00  0.00     0.282 C 
ATOM     58  C2  SGN d 504      10.394  20.085 -19.394  0.00  0.00     0.160 C 
ATOM     59  C3  SGN d 504      11.347  19.913 -20.598  0.00  0.00     0.173 C 
ATOM     60  C4  SGN d 504      11.481  18.398 -20.891  0.00  0.00     0.186 C 
ATOM     61  C5  SGN d 504      10.052  17.852 -21.229  0.00  0.00     0.181 C 
ATOM     62  O5  SGN d 504       9.123  18.126 -20.145  0.00  0.00    -0.349 OA
ATOM     63  N   SGN d 504      10.218  21.502 -19.027  0.00  0.00    -0.189 NA
ATOM     64  H   SGN d 504       9.434  21.852 -19.578  0.00  0.00     0.143 HD
ATOM     69  O3  SGN d 504      12.619  20.443 -20.275  0.00  0.00    -0.391 OA
ATOM     70  H   SGN d 504      12.975  19.981 -19.500  0.00  0.00     0.210 HD
BRANCH  60  71
ATOM     71  O1  IDS d 505      12.616  18.320 -21.761  0.00  0.00    -0.348 OA
BRANCH  71  72
ATOM     72  C1  IDS d 505      13.376  17.143 -21.738  0.00  0.00     0.292 C 
ATOM     73  O5  IDS d 505      14.535  17.279 -20.899  0.00  0.00    -0.343 OA
ATOM     74  C5  IDS d 505      15.725  17.853 -21.490  0.00  0.00     0.224 C 
ATOM     75  C4  IDS d 505      16.228  16.943 -22.659  0.00  0.00     0.077 C 
ATOM     76  C3  IDS d 505      15.096  16.061 -23.248  0.00  0.00     0.154 C 
ATOM     77  C2  IDS d 505      13.747  16.795 -23.203  0.00  0.00     0.202 C 
ATOM     78  C6  IDS d 505      16.780  18.063 -20.404  0.00  0.00     0.170 C 
ATOM     79  O62 IDS d 505      16.745  17.459 -19.351  0.00  0.00    -0.648 OA
ATOM     82  O3  IDS d 535      15.421  15.754 -24.588  0.00  0.00    -0.393 OA
ATOM     83  H   IDS d 535      14.722  15.202 -24.972  0.00  0.00     0.210 HD
ATOM     84  O2  IDS d 505      12.748  15.948 -23.740  0.00  0.00    -0.388 OA
ATOM     85  H   IDS d 505      12.972  15.725 -24.657  0.00  0.00     0.210 HD
BRANCH  78  80
ATOM     80  O61 IDS d 505      17.689  18.843 -20.574  0.00  0.00    -0.774 OA
ENDBRANCH  78  80
ENDBRANCH  71  72
ENDBRANCH  60  71
BRANCH  61  86
ATOM     86  C6  SGN d 504       9.981  16.343 -21.509  0.00  0.00     0.227 C 
BRANCH  86  87
ATOM     87  O6  SGN d 504      10.403  15.646 -20.355  0.00  0.00    -0.254 OA
ATOM     88  S2  SGN d 504      10.153  14.146 -19.996  0.00  0.00     0.251 S 
ATOM     89  O6S SGN d 504      10.722  13.379 -21.066  0.00  0.00    -0.572 OA
ATOM     90  O5S SGN d 504       8.723  14.018 -19.929  0.00  0.00    -0.572 OA
ATOM     91  O4S SGN d 504      10.791  13.909 -18.735  0.00  0.00    -0.572 OA
ENDBRANCH  86  87
ENDBRANCH  61  86
BRANCH  63  65
ATOM     65  S1  SGN d 504       9.923  21.925 -17.463  0.00  0.00     0.183 S 
ATOM     66  O2S SGN d 504      10.847  22.982 -17.166  0.00  0.00    -0.582 OA
ATOM     67  O3S SGN d 504       8.559  22.377 -17.459  0.00  0.00    -0.582 OA
ATOM     68  O1S SGN d 504      10.100  20.777 -16.623  0.00  0.00    -0.582 OA
ENDBRANCH  63  65
ENDBRANCH  56  57
ENDBRANCH   4  56
BRANCH   5  45
ATOM     45  O2  IDS d 503       7.618  23.229 -21.104  0.00  0.00    -0.244 OA
ATOM     46  S   IDS d 503       7.916  24.757 -20.947  0.00  0.00     0.252 S 
ATOM     47  O3S IDS d 503       7.264  25.419 -22.038  0.00  0.00    -0.572 OA
ATOM     48  O1S IDS d 503       7.392  25.139 -19.670  0.00  0.00    -0.572 OA
ATOM     49  O2S IDS d 503       9.345  24.864 -21.024  0.00  0.00    -0.572 OA
ENDBRANCH   5  45
BRANCH   6   7
ATOM      7  O1  IDS d 503       4.807  22.223 -23.064  0.00  0.00    -0.348 OA
BRANCH   7   8
ATOM      8  C4  SGN d 502       4.412  22.477 -24.411  0.00  0.00     0.186 C 
ATOM      9  C3  SGN d 502       3.351  21.380 -24.658  0.00  0.00     0.173 C 
ATOM     10  C2  SGN d 502       2.872  21.504 -26.117  0.00  0.00     0.160 C 
ATOM     11  C1  SGN d 502       2.238  22.906 -26.330  0.00  0.00     0.282 C 
ATOM     12  O5  SGN d 502       3.175  23.937 -25.986  0.00  0.00    -0.349 OA
ATOM     13  C5  SGN d 502       3.740  23.868 -24.650  0.00  0.00     0.181 C 
ATOM     14  O3  SGN d 502       3.939  20.108 -24.461  0.00  0.00    -0.391 OA
ATOM     15  H   SGN d 502       4.686  19.999 -25.070  0.00  0.00     0.210 HD
ATOM     16  N   SGN d 502       1.869  20.482 -26.450  0.00  0.00    -0.189 NA
ATOM     17  H   SGN d 502       0.955  20.929 -26.379  0.00  0.00     0.143 HD
BRANCH  11  22
ATOM     22  O1  SGN d 502       1.054  23.049 -25.572  0.00  0.00    -0.348 OA
BRANCH  22  23
ATOM     23  C4  IDS d 501       0.114  24.061 -25.957  0.00  0.00     0.195 C 
ATOM     24  C3  IDS d 501       0.184  25.190 -27.026  0.00  0.00     0.183 C 
ATOM     25  C2  IDS d 501      -1.213  25.599 -27.571  0.00  0.00     0.204 C 
ATOM     26  C1  IDS d 501      -2.311  25.713 -26.478  0.00  0.00     0.289 C 
ATOM     27  O5  IDS d 501      -2.243  24.594 -25.596  0.00  0.00    -0.340 OA
ATOM     28  C5  IDS d 501      -0.988  24.404 -24.918  0.00  0.00     0.253 C 
ATOM     29  O3  IDS d 501       0.798  26.318 -26.435  0.00  0.00    -0.390 OA
ATOM     30  H   IDS d 501       0.261  26.624 -25.687  0.00  0.00     0.210 HD
ATOM     31  O2  IDS d 501      -1.631  24.626 -28.511  0.00  0.00    -0.388 OA
ATOM     32  H   IDS d 501      -2.503  24.868 -28.861  0.00  0.00     0.210 HD
ATOM     33  O1  IDS d 501      -2.154  26.932 -25.801  0.00  0.00    -0.368 OA
ATOM     34  H   IDS d 501      -2.207  27.663 -26.436  0.00  0.00     0.212 HD
ATOM     35  C6  IDS d 501      -1.170  23.371 -23.807  0.00  0.00     0.172 C 
ATOM     36  O61 IDS d 501      -1.823  22.365 -23.978  0.00  0.00    -0.648 OA
BRANCH  35  37
ATOM     37  O62 IDS d 501      -0.659  23.535 -22.724  0.00  0.00    -0.774 OA
ENDBRANCH  35  37
ENDBRANCH  22  23
ENDBRANCH  11  22
BRANCH  13  39
ATOM     39  C6  SGN d 502       4.677  25.080 -24.487  0.00  0.00     0.227 C 
BRANCH  39  40
ATOM     40  O6  SGN d 502       5.863  24.857 -25.227  0.00  0.00    -0.254 OA
ATOM     41  S2  SGN d 502       6.701  25.902 -26.036  0.00  0.00     0.251 S 
ATOM     42  O5S SGN d 502       5.791  26.411 -27.023  0.00  0.00    -0.572 OA
ATOM     43  O4S SGN d 502       7.808  25.201 -26.611  0.00  0.00    -0.572 OA
ATOM     44  O6S SGN d 502       7.104  26.906 -25.095  0.00  0.00    -0.572 OA
ENDBRANCH  39  40
ENDBRANCH  13  39
BRANCH  16  18
ATOM     18  S1  SGN d 502       1.925  19.742 -27.912  0.00  0.00     0.183 S 
ATOM     19  O1S SGN d 502       3.269  19.315 -28.159  0.00  0.00    -0.582 OA
ATOM     20  O3S SGN d 502       1.507  20.748 -28.847  0.00  0.00    -0.582 OA
ATOM     21  O2S SGN d 502       0.997  18.651 -27.832  0.00  0.00    -0.582 OA
ENDBRANCH  16  18
ENDBRANCH   7   8
ENDBRANCH   6   7
TORSDOF 20
