REMARK 27 active torsions
REMARK    1  A    between atoms: atom6  and  atom_
REMARK    2  A    between atoms: atom7  and  atom_
REMARK    3  A    between atoms: atom9  and  atom_
REMARK    4  A    between atoms: atom1  and  atom1
REMARK    5  A    between atoms: atom2  and  atom1
REMARK    6  A    between atoms: atom2  and  atom5
REMARK    7  A    between atoms: atom3  and  atom6
REMARK    8  A    between atoms: atom3  and  atom8
REMARK    9  A    between atoms: atom2  and  atom6
REMARK    10  A    between atoms: atom5  and  atom4
REMARK    11  A    between atoms: atom4  and  atom_
REMARK    12  A    between atoms: atom6  and  atom6
REMARK    13  A    between atoms: atom3  and  atom_
REMARK    14  A    between atoms: atom7  and  atom8
REMARK    15  A    between atoms: atom8  and  atom2
REMARK    16  A    between atoms: atom8  and  atom9
REMARK    17  A    between atoms: atom9  and  atom5
REMARK    18  A    between atoms: atom1  and  atom0
REMARK    19  A    between atoms: atom8  and  atom3
REMARK    20  A    between atoms: atom2  and  atom8
REMARK    21  A    between atoms: atom5  and  atom0
REMARK    22  A    between atoms: atom6  and  atom0
REMARK    23  A    between atoms: atom2  and  atom_
REMARK    24  A    between atoms: atom1  and  atom_
REMARK    25  A    between atoms: atom7  and  atom2
REMARK    26  A    between atoms: atom8  and  atom5
REMARK    27  A    between atoms: atom9  and  atom8
ROOT
ATOM      1  C2  SGN d 304     108.098  34.009 121.686  0.00  0.00     0.160 C 
ATOM      2  C3  SGN d 304     108.481  32.951 120.646  0.00  0.00     0.173 C 
ATOM      3  C1  SGN d 304     108.758  35.371 121.362  0.00  0.00     0.282 C 
ATOM      4  C5  SGN d 304     108.774  34.776 118.997  0.00  0.00     0.181 C 
ATOM      5  O5  SGN d 304     108.402  35.740 120.017  0.00  0.00    -0.349 OA
ATOM      6  C4  SGN d 304     108.041  33.447 119.274  0.00  0.00     0.186 C 
ENDROOT
BRANCH   1  72
ATOM     72  N   SGN d 304     108.671  33.544 122.925  0.00  0.00    -0.189 NA
ATOM     73  H   SGN d 304     109.677  33.701 122.864  0.00  0.00     0.143 HD
BRANCH  72  74
ATOM     74  S1  SGN d 304     108.136  34.247 124.446  0.00  0.00     0.183 S 
ATOM     75  O1S SGN d 304     108.274  35.675 124.423  0.00  0.00    -0.582 OA
ATOM     76  O2S SGN d 304     108.954  33.683 125.465  0.00  0.00    -0.582 OA
ATOM     77  O3S SGN d 304     106.770  33.896 124.667  0.00  0.00    -0.582 OA
ENDBRANCH  72  74
ENDBRANCH   1  72
BRANCH   2  64
ATOM     64  O3  SGN d 304     107.834  31.733 120.961  0.00  0.00    -0.391 OA
ATOM     65  H   SGN d 304     106.874  31.869 120.965  0.00  0.00     0.210 HD
ENDBRANCH   2  64
BRANCH   3  78
ATOM     78  O1  SGN d 304     110.177  35.272 121.513  0.00  0.00    -0.348 OA
BRANCH  78  79
ATOM     79  C4  IDS d 305     110.881  36.447 121.934  0.00  0.00     0.195 C 
ATOM     80  C5  IDS d 305     111.894  36.795 120.853  0.00  0.00     0.253 C 
ATOM     81  O5  IDS d 305     113.037  35.994 120.689  0.00  0.00    -0.340 OA
ATOM     82  C1  IDS d 305     113.823  35.637 121.828  0.00  0.00     0.294 C 
ATOM     83  C2  IDS d 305     112.983  35.513 123.127  0.00  0.00     0.231 C 
ATOM     84  C3  IDS d 305     111.607  36.191 123.269  0.00  0.00     0.185 C 
ATOM     85  C6  IDS d 305     111.251  37.386 119.598  0.00  0.00     0.172 C 
ATOM     86  O61 IDS d 305     110.312  38.190 119.723  0.00  0.00    -0.648 OA
ATOM    117  O3  IDS d 305     111.771  37.366 123.958  0.00  0.00    -0.390 OA
ATOM    118  H   IDS d 305     112.347  37.960 123.452  0.00  0.00     0.210 HD
BRANCH  82  89
ATOM     89  O4  SGN d 306     114.946  36.492 122.082  0.00  0.00    -0.348 OA
BRANCH  89  90
ATOM     90  C4  SGN d 306     115.909  36.723 121.037  0.00  0.00     0.186 C 
ATOM     91  C3  SGN d 306     116.348  38.190 121.087  0.00  0.00     0.173 C 
ATOM     92  C2  SGN d 306     117.364  38.431 119.981  0.00  0.00     0.160 C 
ATOM     93  C1  SGN d 306     118.590  37.514 120.116  0.00  0.00     0.278 C 
ATOM     94  O5  SGN d 306     118.136  36.144 120.206  0.00  0.00    -0.350 OA
ATOM     95  C5  SGN d 306     117.170  35.861 121.263  0.00  0.00     0.181 C 
ATOM     96  O3  SGN d 306     115.244  39.053 120.887  0.00  0.00    -0.391 OA
ATOM     97  H   SGN d 306     115.544  39.975 120.922  0.00  0.00     0.210 HD
ATOM     98  N   SGN d 306     117.822  39.779 120.171  0.00  0.00    -0.189 NA
ATOM     99  H   SGN d 306     117.409  40.123 121.038  0.00  0.00     0.143 HD
ATOM    104  O1  SGN d 306     119.344  37.901 121.260  0.00  0.00    -0.369 OA
ATOM    105  H   SGN d 306     118.788  37.832 122.052  0.00  0.00     0.212 HD
BRANCH  95  106
ATOM    106  C6  SGN d 306     116.835  34.380 121.246  0.00  0.00     0.227 C 
BRANCH  106  107
ATOM    107  O6  SGN d 306     117.556  33.718 120.230  0.00  0.00    -0.254 OA
ATOM    108  S2  SGN d 306     117.365  31.974 120.164  0.00  0.00     0.251 S 
ATOM    109  O5S SGN d 306     116.092  31.698 119.560  0.00  0.00    -0.572 OA
ATOM    110  O4S SGN d 306     118.432  31.404 119.391  0.00  0.00    -0.572 OA
ATOM    111  O6S SGN d 306     117.385  31.467 121.513  0.00  0.00    -0.572 OA
ENDBRANCH  106  107
ENDBRANCH  95  106
BRANCH  98  100
ATOM    100  S1  SGN d 306     117.449  40.946 118.910  0.00  0.00     0.183 S 
ATOM    101  O1S SGN d 306     116.050  40.865 118.573  0.00  0.00    -0.582 OA
ATOM    102  O2S SGN d 306     118.258  40.608 117.780  0.00  0.00    -0.582 OA
ATOM    103  O3S SGN d 306     117.772  42.270 119.380  0.00  0.00    -0.582 OA
ENDBRANCH  98  100
ENDBRANCH  89  90
ENDBRANCH  82  89
BRANCH  83  112
ATOM    112  O2  IDS d 305     113.103  34.288 123.838  0.00  0.00    -0.244 OA
ATOM    113  S   IDS d 305     112.594  32.792 123.038  0.00  0.00     0.252 S 
ATOM    114  O3S IDS d 305     112.905  31.736 123.930  0.00  0.00    -0.572 OA
ATOM    115  O1S IDS d 305     113.325  32.639 121.831  0.00  0.00    -0.572 OA
ATOM    116  O2S IDS d 305     111.202  32.849 122.777  0.00  0.00    -0.572 OA
ENDBRANCH  83  112
BRANCH  85  87
ATOM     87  O62 IDS d 305     111.545  36.840 118.510  0.00  0.00    -0.774 OA
ENDBRANCH  85  87
ENDBRANCH  78  79
ENDBRANCH   3  78
BRANCH   4  66
ATOM     66  C6  SGN d 304     108.378  35.353 117.661  0.00  0.00     0.227 C 
BRANCH  66  67
ATOM     67  O6  SGN d 304     106.959  35.487 117.673  0.00  0.00    -0.254 OA
ATOM     68  S2  SGN d 304     106.177  36.048 116.214  0.00  0.00     0.251 S 
ATOM     69  O4S SGN d 304     106.516  37.422 116.001  0.00  0.00    -0.572 OA
ATOM     70  O5S SGN d 304     104.756  35.906 116.395  0.00  0.00    -0.572 OA
ATOM     71  O6S SGN d 304     106.626  35.226 115.113  0.00  0.00    -0.572 OA
ENDBRANCH  66  67
ENDBRANCH   4  66
BRANCH   6   7
ATOM      7  O4  SGN d 304     108.414  32.461 118.300  0.00  0.00    -0.348 OA
BRANCH   7   8
ATOM      8  C1  IDS d 303     107.518  32.140 117.252  0.00  0.00     0.294 C 
ATOM      9  C2  IDS d 303     108.038  30.897 116.500  0.00  0.00     0.231 C 
ATOM     10  C3  IDS d 303     107.764  29.547 117.185  0.00  0.00     0.185 C 
ATOM     11  C4  IDS d 303     106.278  29.394 117.582  0.00  0.00     0.195 C 
ATOM     12  C5  IDS d 303     105.816  30.692 118.239  0.00  0.00     0.253 C 
ATOM     13  O5  IDS d 303     106.176  31.938 117.672  0.00  0.00    -0.340 OA
ATOM     19  O3  IDS d 303     108.601  29.380 118.269  0.00  0.00    -0.390 OA
ATOM     20  H   IDS d 303     109.523  29.482 117.985  0.00  0.00     0.210 HD
ATOM     60  C6  IDS d 303     104.419  30.583 118.781  0.00  0.00     0.172 C 
ATOM     61  O61 IDS d 303     104.249  30.076 119.892  0.00  0.00    -0.648 OA
BRANCH   9  14
ATOM     14  O2  IDS d 303     107.466  30.848 115.233  0.00  0.00    -0.244 OA
ATOM     15  S   IDS d 303     108.352  31.717 113.995  0.00  0.00     0.252 S 
ATOM     16  O1S IDS d 303     108.334  33.100 114.344  0.00  0.00    -0.572 OA
ATOM     17  O2S IDS d 303     107.694  31.508 112.735  0.00  0.00    -0.572 OA
ATOM     18  O3S IDS d 303     109.694  31.189 113.998  0.00  0.00    -0.572 OA
ENDBRANCH   9  14
BRANCH  11  21
ATOM     21  O1  SGN d 302     105.468  29.240 116.411  0.00  0.00    -0.348 OA
BRANCH  21  22
ATOM     22  C1  SGN d 302     105.155  27.927 115.947  0.00  0.00     0.282 C 
ATOM     23  C2  SGN d 302     104.608  28.077 114.525  0.00  0.00     0.160 C 
ATOM     24  C3  SGN d 302     103.314  28.875 114.531  0.00  0.00     0.173 C 
ATOM     25  C4  SGN d 302     102.322  28.099 115.374  0.00  0.00     0.186 C 
ATOM     26  C5  SGN d 302     102.858  27.973 116.793  0.00  0.00     0.181 C 
ATOM     27  O5  SGN d 302     104.136  27.284 116.758  0.00  0.00    -0.349 OA
ATOM     28  N   SGN d 302     105.565  28.873 113.795  0.00  0.00    -0.189 NA
ATOM     29  H   SGN d 302     106.297  29.143 114.452  0.00  0.00     0.143 HD
ATOM     34  O3  SGN d 302     102.818  28.997 113.210  0.00  0.00    -0.391 OA
ATOM     35  H   SGN d 302     102.668  28.114 112.838  0.00  0.00     0.210 HD
BRANCH  25  36
ATOM     36  O4  SGN d 302     101.113  28.799 115.419  0.00  0.00    -0.348 OA
BRANCH  36  37
ATOM     37  C1  UAP d 301     100.021  28.298 114.703  0.00  0.00     0.294 C 
ATOM     38  C2  UAP d 301      98.807  28.703 115.513  0.00  0.00     0.228 C 
ATOM     39  C3  UAP d 301      98.370  30.176 115.497  0.00  0.00     0.156 C 
ATOM     40  C4  UAP d 301      98.655  30.935 114.171  0.00  0.00     0.077 C 
ATOM     41  C5  UAP d 301      99.437  30.109 113.148  0.00  0.00     0.224 C 
ATOM     42  O5  UAP d 301      99.988  28.825 113.381  0.00  0.00    -0.343 OA
ATOM     48  O3  UAP d 301      99.018  30.808 116.556  0.00  0.00    -0.393 OA
ATOM     49  H   UAP d 301      99.978  30.762 116.421  0.00  0.00     0.210 HD
ATOM     50  C6  UAP d 301      99.491  30.709 111.748  0.00  0.00     0.170 C 
ATOM     51  O61 UAP d 301      98.970  31.820 111.522  0.00  0.00    -0.648 OA
BRANCH  38  43
ATOM     43  O2  UAP d 301      97.716  27.947 115.111  0.00  0.00    -0.244 OA
ATOM     44  S   UAP d 301      96.936  27.106 116.421  0.00  0.00     0.252 S 
ATOM     45  O1S UAP d 301      95.554  27.086 116.136  0.00  0.00    -0.572 OA
ATOM     46  O3S UAP d 301      97.489  25.787 116.422  0.00  0.00    -0.572 OA
ATOM     47  O2S UAP d 301      97.176  27.801 117.662  0.00  0.00    -0.572 OA
ENDBRANCH  38  43
BRANCH  50  52
ATOM     52  O62 UAP d 301     100.047  30.013 110.871  0.00  0.00    -0.774 OA
ENDBRANCH  50  52
ENDBRANCH  36  37
ENDBRANCH  25  36
BRANCH  26  54
ATOM     54  C6  SGN d 302     101.853  27.216 117.650  0.00  0.00     0.227 C 
BRANCH  54  55
ATOM     55  O6  SGN d 302     102.397  26.010 118.138  0.00  0.00    -0.254 OA
ATOM     56  S2  SGN d 302     101.889  25.536 119.751  0.00  0.00     0.251 S 
ATOM     57  O4S SGN d 302     102.784  26.112 120.715  0.00  0.00    -0.572 OA
ATOM     58  O6S SGN d 302     100.540  25.998 119.966  0.00  0.00    -0.572 OA
ATOM     59  O5S SGN d 302     101.915  24.101 119.829  0.00  0.00    -0.572 OA
ENDBRANCH  54  55
ENDBRANCH  26  54
BRANCH  28  30
ATOM     30  S1  SGN d 302     106.362  28.149 112.392  0.00  0.00     0.183 S 
ATOM     31  O1S SGN d 302     105.804  28.719 111.191  0.00  0.00    -0.582 OA
ATOM     32  O2S SGN d 302     106.119  26.740 112.444  0.00  0.00    -0.582 OA
ATOM     33  O3S SGN d 302     107.781  28.395 112.461  0.00  0.00    -0.582 OA
ENDBRANCH  28  30
ENDBRANCH  21  22
ENDBRANCH  11  21
BRANCH  60  62
ATOM     62  O62 IDS d 303     103.540  31.207 118.156  0.00  0.00    -0.774 OA
ENDBRANCH  60  62
ENDBRANCH   7   8
ENDBRANCH   6   7
TORSDOF 27
