REMARK 14 active torsions
REMARK    1  A    between atoms: atom3  and  atom_
REMARK    2  A    between atoms: atom7  and  atom_
REMARK    3  A    between atoms: atom1  and  atom2
REMARK    4  A    between atoms: atom2  and  atom4
REMARK    5  A    between atoms: atom6  and  atom_
REMARK    6  A    between atoms: atom5  and  atom_
REMARK    7  A    between atoms: atom4  and  atom1
REMARK    8  A    between atoms: atom4  and  atom7
REMARK    9  A    between atoms: atom5  and  atom8
REMARK    10  A    between atoms: atom1  and  atom4
REMARK    11  A    between atoms: atom1  and  atom_
REMARK    12  A    between atoms: atom3  and  atom0
REMARK    13  A    between atoms: atom2  and  atom_
REMARK    14  A    between atoms: atom5  and  atom0
ROOT
ATOM      1  C5  IDS d 502      32.210  23.443 146.531  0.00  0.00     0.253 C 
ATOM      2  C3  IDS d 502      30.099  22.175 145.793  0.00  0.00     0.185 C 
ATOM      3  C4  IDS d 502      30.688  23.251 146.683  0.00  0.00     0.195 C 
ATOM      4  O5  IDS d 502      32.812  22.822 145.378  0.00  0.00    -0.340 OA
ATOM      5  C1  IDS d 502      32.281  21.606 144.837  0.00  0.00     0.294 C 
ATOM      6  C2  IDS d 502      31.121  21.076 145.648  0.00  0.00     0.231 C 
ENDROOT
BRANCH   1  30
ATOM     30  C6  IDS d 502      32.476  24.923 146.295  0.00  0.00     0.172 C 
ATOM     31  O61 IDS d 502      33.187  25.550 147.106  0.00  0.00    -0.648 OA
BRANCH  30  32
ATOM     32  O62 IDS d 502      32.052  25.435 145.232  0.00  0.00    -0.774 OA
ENDBRANCH  30  32
ENDBRANCH   1  30
BRANCH   2  34
ATOM     34  O3  IDS d 502      28.927  21.658 146.388  0.00  0.00    -0.390 OA
ATOM     35  H   IDS d 502      29.142  21.288 147.259  0.00  0.00     0.210 HD
ENDBRANCH   2  34
BRANCH   3   7
ATOM      7  O1  SGN d 501      29.956  24.468 146.536  0.00  0.00    -0.348 OA
BRANCH   7   8
ATOM      8  C1  SGN d 501      29.346  24.902 147.750  0.00  0.00     0.282 C 
ATOM      9  C2  SGN d 501      27.959  25.494 147.494  0.00  0.00     0.160 C 
ATOM     10  C3  SGN d 501      28.046  26.857 146.812  0.00  0.00     0.172 C 
ATOM     11  C4  SGN d 501      28.992  27.765 147.588  0.00  0.00     0.179 C 
ATOM     12  C5  SGN d 501      30.345  27.078 147.721  0.00  0.00     0.181 C 
ATOM     13  O5  SGN d 501      30.175  25.848 148.433  0.00  0.00    -0.349 OA
ATOM     14  N   SGN d 501      27.163  24.586 146.688  0.00  0.00    -0.189 NA
ATOM     15  H   SGN d 501      27.191  24.938 145.731  0.00  0.00     0.143 HD
ATOM     20  O3  SGN d 501      26.763  27.447 146.738  0.00  0.00    -0.391 OA
ATOM     21  H   SGN d 501      26.167  26.863 146.243  0.00  0.00     0.210 HD
ATOM     22  O4  SGN d 501      29.146  29.007 146.899  0.00  0.00    -0.390 OA
ATOM     23  H   SGN d 501      28.282  29.441 146.817  0.00  0.00     0.210 HD
BRANCH  12  24
ATOM     24  C6  SGN d 501      31.367  27.975 148.411  0.00  0.00     0.227 C 
BRANCH  24  25
ATOM     25  O6  SGN d 501      31.823  27.367 149.618  0.00  0.00    -0.254 OA
ATOM     26  S2  SGN d 501      31.909  28.325 151.105  0.00  0.00     0.251 S 
ATOM     27  O4S SGN d 501      32.114  27.424 152.263  0.00  0.00    -0.572 OA
ATOM     28  O5S SGN d 501      30.644  29.075 151.281  0.00  0.00    -0.572 OA
ATOM     29  O6S SGN d 501      33.040  29.279 151.017  0.00  0.00    -0.572 OA
ENDBRANCH  24  25
ENDBRANCH  12  24
BRANCH  14  16
ATOM     16  S1  SGN d 501      25.458  24.320 147.087  0.00  0.00     0.183 S 
ATOM     17  O3S SGN d 501      25.011  25.320 148.083  0.00  0.00    -0.582 OA
ATOM     18  O1S SGN d 501      25.296  22.961 147.652  0.00  0.00    -0.582 OA
ATOM     19  O2S SGN d 501      24.638  24.451 145.860  0.00  0.00    -0.582 OA
ENDBRANCH  14  16
ENDBRANCH   7   8
ENDBRANCH   3   7
BRANCH   5  41
ATOM     41  O4  SGN d 503      33.279  20.595 144.741  0.00  0.00    -0.348 OA
BRANCH  41  42
ATOM     42  C4  SGN d 503      34.044  20.645 143.539  0.00  0.00     0.186 C 
ATOM     43  C3  SGN d 503      35.513  20.623 143.908  0.00  0.00     0.173 C 
ATOM     44  C2  SGN d 503      36.347  20.530 142.644  0.00  0.00     0.160 C 
ATOM     45  C1  SGN d 503      35.938  19.313 141.829  0.00  0.00     0.278 C 
ATOM     46  O5  SGN d 503      34.547  19.404 141.532  0.00  0.00    -0.350 OA
ATOM     47  C5  SGN d 503      33.683  19.450 142.669  0.00  0.00     0.181 C 
ATOM     48  O3  SGN d 503      35.832  21.800 144.618  0.00  0.00    -0.391 OA
ATOM     49  H   SGN d 503      35.645  22.573 144.063  0.00  0.00     0.210 HD
ATOM     50  N   SGN d 503      37.747  20.438 142.996  0.00  0.00    -0.189 NA
ATOM     51  H   SGN d 503      38.127  19.628 142.507  0.00  0.00     0.143 HD
ATOM     56  O1  SGN d 503      36.215  18.120 142.556  0.00  0.00    -0.369 OA
ATOM     57  H   SGN d 503      35.718  18.126 143.389  0.00  0.00     0.212 HD
BRANCH  47  58
ATOM     58  C6  SGN d 503      32.275  19.674 142.150  0.00  0.00     0.227 C 
BRANCH  58  59
ATOM     59  O6  SGN d 503      32.193  21.049 141.793  0.00  0.00    -0.254 OA
ATOM     60  S2  SGN d 503      30.784  21.652 140.933  0.00  0.00     0.251 S 
ATOM     61  O4S SGN d 503      29.763  22.075 141.914  0.00  0.00    -0.572 OA
ATOM     62  O6S SGN d 503      31.194  22.794 140.091  0.00  0.00    -0.572 OA
ATOM     63  O5S SGN d 503      30.233  20.573 140.096  0.00  0.00    -0.572 OA
ENDBRANCH  58  59
ENDBRANCH  47  58
BRANCH  50  52
ATOM     52  S1  SGN d 503      38.804  21.804 142.636  0.00  0.00     0.183 S 
ATOM     53  O2S SGN d 503      40.102  21.621 143.327  0.00  0.00    -0.582 OA
ATOM     54  O1S SGN d 503      39.018  21.871 141.175  0.00  0.00    -0.582 OA
ATOM     55  O3S SGN d 503      38.161  23.054 143.100  0.00  0.00    -0.582 OA
ENDBRANCH  50  52
ENDBRANCH  41  42
ENDBRANCH   5  41
BRANCH   6  36
ATOM     36  O2  IDS d 502      30.547  19.970 144.959  0.00  0.00    -0.244 OA
ATOM     37  S   IDS d 502      30.963  18.340 145.500  0.00  0.00     0.252 S 
ATOM     38  O2S IDS d 502      32.056  18.415 146.498  0.00  0.00    -0.572 OA
ATOM     39  O1S IDS d 502      29.771  17.708 146.111  0.00  0.00    -0.572 OA
ATOM     40  O3S IDS d 502      31.415  17.536 144.344  0.00  0.00    -0.572 OA
ENDBRANCH   6  36
TORSDOF 14
