REMARK  0 active torsions:
REMARK  status: ('A' for Active; 'I' for Inactive)
REMARK       I    between atoms: C6_1  and  C5_27 
REMARK       I    between atoms: C6_1  and  O6_30 
REMARK       I    between atoms: O3_2  and  C3_3 
REMARK       I    between atoms: C6_4  and  C5_23 
REMARK       I    between atoms: C6_4  and  O62_11 
REMARK       I    between atoms: C1_6  and  O1_26 
REMARK       I    between atoms: C1_7  and  O1_9 
REMARK       I    between atoms: O1_9  and  C4_31 
REMARK       I    between atoms: C3_10  and  O3_29 
REMARK       I    between atoms: S_13  and  O2_22 
REMARK       I    between atoms: N_19  and  C2_25 
REMARK       I    between atoms: N_19  and  S1_28 
REMARK       I    between atoms: C2_20  and  O2_22 
ROOT
ATOM      1  C6  SGN d   1     -36.275  27.935 -34.450  0.00  0.00     0.198 C 
ATOM      2  O3  SGN d   1     -37.362  26.160 -30.020  0.00  0.00    -0.391 OA
ATOM      3  C3  SGN d   1     -37.860  26.333 -31.355  0.00  0.00     0.173 C 
ATOM      4  C1  SGN d   1     -38.492  25.158 -33.443  0.00  0.00     0.278 C 
ATOM      5  O2S SGN d   1     -40.602  23.361 -33.178  0.00  0.00    -0.582 OA
ATOM      6  O3S SGN d   1     -38.397  22.258 -32.738  0.00  0.00    -0.582 OA
ATOM      7  O5  SGN d   1     -37.448  25.850 -34.144  0.00  0.00    -0.350 OA
ATOM      8  N   SGN d   1     -39.120  24.230 -31.244  0.00  0.00    -0.189 NA
ATOM      9  O1S SGN d   1     -40.296  21.936 -31.152  0.00  0.00    -0.582 OA
ATOM     10  C2  SGN d   1     -38.091  24.971 -31.989  0.00  0.00     0.160 C 
ATOM     11  O1  SGN d   1     -39.706  25.922 -33.512  0.00  0.00    -0.369 OA
ATOM     12  C5  SGN d   1     -37.299  27.179 -33.621  0.00  0.00     0.179 C 
ATOM     13  S1  SGN d   1     -39.612  22.928 -32.094  0.00  0.00     0.183 S 
ATOM     14  O6  SGN d   1     -36.706  27.989 -35.813  0.00  0.00    -0.398 OA
ATOM     15  C4  SGN d   1     -36.846  27.118 -32.171  0.00  0.00     0.186 C 
ATOM     16  H   SGN d   1     -38.007  25.659 -29.497  0.00  0.00     0.210 HD
ATOM     17  H   SGN d   1     -39.918  24.842 -31.075  0.00  0.00     0.143 HD
ATOM     18  H   SGN d   1     -39.565  26.790 -33.103  0.00  0.00     0.212 HD
ATOM     19  H   SGN d   1     -36.797  27.087 -36.159  0.00  0.00     0.209 HD
ATOM     20  C6  IDS d   2     -34.700  27.768 -27.890  0.00  0.00     0.170 C 
ATOM     21  O3S IDS d   2     -37.403  32.248 -31.513  0.00  0.00    -0.572 OA
ATOM     22  C1  IDS d   2     -35.384  28.800 -31.376  0.00  0.00     0.294 C 
ATOM     23  O5  IDS d   2     -34.849  28.022 -30.292  0.00  0.00    -0.343 OA
ATOM     24  O1  IDS d   2     -36.749  28.449 -31.642  0.00  0.00    -0.348 OA
ATOM     25  C3  IDS d   2     -33.994  30.580 -30.355  0.00  0.00     0.156 C 
ATOM     26  O62 IDS d   2     -35.312  27.972 -26.818  0.00  0.00    -0.774 OA
ATOM     27  S   IDS d   2     -36.727  31.520 -32.677  0.00  0.00     0.252 S 
ATOM     28  C4  IDS d   2     -33.997  29.876 -29.008  0.00  0.00     0.077 C 
ATOM     29  O2S IDS d   2     -37.591  30.334 -33.108  0.00  0.00    -0.572 OA
ATOM     30  O61 IDS d   2     -33.855  26.872 -28.095  0.00  0.00    -0.648 OA
ATOM     31  C2  IDS d   2     -35.311  30.284 -31.052  0.00  0.00     0.228 C 
ATOM     32  O2  IDS d   2     -35.437  31.049 -32.260  0.00  0.00    -0.244 OA
ATOM     33  C5  IDS d   2     -34.989  28.724 -29.049  0.00  0.00     0.224 C 
ATOM     34  O1S IDS d   2     -36.561  32.483 -33.854  0.00  0.00    -0.572 OA
ATOM     35  O3  IDS d   2     -33.870  31.996 -30.151  0.00  0.00    -0.393 OA
ATOM     36  H   IDS d   2     -35.931  28.672 -26.758  0.00  0.00     0.167 HD
ATOM     37  H   IDS d   2     -34.611  32.311 -29.611  0.00  0.00     0.210 HD
ENDROOT
TORSDOF 13
