REMARK WARNING: 32 MAX_TORS EXCEEDED!!!
REMARK  40 active torsions:
REMARK  status: ('A' for Active; 'I' for Inactive)
REMARK    1 I    between atoms: C6_1  and  C5_8 
REMARK    2 I    between atoms: C6_1  and  O6_57 
REMARK    3 I    between atoms: O4_2  and  C4_49 
REMARK    4 I    between atoms: O6_3  and  C6_7 
REMARK    5 I    between atoms: O6_3  and  S2_58 
REMARK    6 I    between atoms: S_4  and  O2_6 
REMARK    7 I    between atoms: O3_5  and  C3_81 
REMARK    8 I    between atoms: O2_6  and  C2_11 
REMARK    9 I    between atoms: C6_7  and  C5_54 
REMARK   10 I    between atoms: O4_9  and  C4_32 
REMARK   11 A    between atoms: O4_9  and  C1_39 
REMARK   11  A    between atoms: O4_9  and  C1_39 
REMARK   12 I    between atoms: O3_12  and  C3_18 
REMARK   13 I    between atoms: N_13  and  C2_52 
REMARK   14 I    between atoms: N_13  and  S1_45 
REMARK   15 I    between atoms: O3_17  and  C3_83 
REMARK   16 I    between atoms: C4_20  and  O4_44 
REMARK   17 I    between atoms: N_21  and  C2_66 
REMARK   18 I    between atoms: N_21  and  S1_53 
REMARK   19 I    between atoms: O3_22  and  C3_65 
REMARK   20 I    between atoms: C4_23  and  O4_74 
REMARK   21 I    between atoms: C1_25  and  O1_72 
REMARK   22 I    between atoms: C2_28  and  O2_69 
REMARK   23 I    between atoms: C4_33  and  O4_61 
REMARK   24 I    between atoms: O2S_34  and  S1_45 
REMARK   25 I    between atoms: C6_37  and  C5_47 
REMARK   26 I    between atoms: O2_38  and  C2_77 
REMARK   27 I    between atoms: O2_38  and  S_50 
REMARK   28 I    between atoms: O3S_40  and  S1_53 
REMARK   29 I    between atoms: O1S_42  and  S1_45 
REMARK   30 I    between atoms: O1S_43  and  S1_53 
REMARK   31 A    between atoms: O4_44  and  C1_46 
REMARK   31  A    between atoms: O4_44  and  C1_46 
REMARK   32 I    between atoms: S1_45  and  O3S_60 
REMARK   33 I    between atoms: C6_48  and  C5_84 
REMARK   34 I    between atoms: C6_51  and  C5_87 
REMARK   35 I    between atoms: S1_53  and  O2S_55 
REMARK   36 I    between atoms: C1_56  and  O4_74 
REMARK   37 I    between atoms: O6_57  and  S2_82 
REMARK   38 A    between atoms: O4_61  and  C1_70 
REMARK   38  A    between atoms: O4_61  and  C1_70 
REMARK   39 I    between atoms: C3_63  and  O3_79 
REMARK   40 I    between atoms: O2_69  and  S_76 
ROOT
ATOM      1  C3  IDS d 504     -17.325  50.075 175.596  0.00  0.00     0.185 C 
ATOM      2  C4  IDS d 504     -16.640  49.526 174.354  0.00  0.00     0.195 C 
ATOM      3  C1  IDS d 504     -16.791  52.425 174.700  0.00  0.00     0.294 C 
ATOM      4  O5  IDS d 504     -16.155  51.761 173.603  0.00  0.00    -0.340 OA
ATOM      5  C2  IDS d 504     -16.845  51.540 175.929  0.00  0.00     0.231 C 
ATOM      6  C5  IDS d 504     -16.766  50.548 173.226  0.00  0.00     0.257 C 
ENDROOT
BRANCH   2   7
ATOM      7  O4  IDS d 504     -15.271  49.282 174.642  0.00  0.00    -0.348 OA
BRANCH   7   8
ATOM      8  C1  SGN d 505     -14.952  47.923 174.770  0.00  0.00     0.282 C 
ATOM      9  O5  SGN d 505     -14.897  47.314 173.511  0.00  0.00    -0.349 OA
ATOM     10  C5  SGN d 505     -13.882  47.808 172.692  0.00  0.00     0.181 C 
ATOM     11  C4  SGN d 505     -12.543  47.499 173.279  0.00  0.00     0.186 C 
ATOM     12  C3  SGN d 505     -12.463  48.264 174.632  0.00  0.00     0.173 C 
ATOM     13  C2  SGN d 505     -13.629  47.726 175.484  0.00  0.00     0.157 C 
BRANCH  10  14
ATOM     14  C6  SGN d 505     -14.085  47.183 171.350  0.00  0.00     0.227 C 
BRANCH  14  15
ATOM     15  O6  SGN d 505     -13.848  45.830 171.540  0.00  0.00    -0.254 OA
BRANCH  15  16
ATOM     16  S2  SGN d 505     -14.088  44.704 170.545  0.00  0.00     0.251 S 
ATOM     17  O5S SGN d 505     -15.133  43.910 171.142  0.00  0.00    -0.572 OA
ATOM     18  O4S SGN d 505     -12.813  44.032 170.436  0.00  0.00    -0.572 OA
ATOM     19  O6S SGN d 505     -14.505  45.325 169.295  0.00  0.00    -0.572 OA
ENDBRANCH  15  16
ENDBRANCH  14  15
ENDBRANCH  10  14
BRANCH  11  20
ATOM     20  O4  SGN d 505     -11.597  47.885 172.304  0.00  0.00    -0.348 OA
BRANCH  20  21
ATOM     21  C1  IDS d 506     -10.548  48.756 172.556  0.00  0.00     0.294 C 
ATOM     22  C2  IDS d 506      -9.989  49.261 171.218  0.00  0.00     0.231 C 
ATOM     23  C3  IDS d 506      -8.612  49.968 171.354  0.00  0.00     0.185 C 
ATOM     24  C4  IDS d 506      -7.679  49.315 172.396  0.00  0.00     0.189 C 
ATOM     25  C5  IDS d 506      -8.475  48.845 173.618  0.00  0.00     0.256 C 
ATOM     26  O5  IDS d 506      -9.535  48.041 173.217  0.00  0.00    -0.340 OA
BRANCH  22  27
ATOM     27  O2  IDS d 506      -9.807  48.178 170.327  0.00  0.00    -0.244 OA
BRANCH  27  28
ATOM     28  S   IDS d 506      -9.644  48.220 168.747  0.00  0.00     0.252 S 
ATOM     29  O1S IDS d 506      -8.616  49.185 168.505  0.00  0.00    -0.572 OA
ATOM     30  O2S IDS d 506      -9.241  46.915 168.305  0.00  0.00    -0.572 OA
ATOM     31  O3S IDS d 506     -10.936  48.623 168.235  0.00  0.00    -0.572 OA
ENDBRANCH  27  28
ENDBRANCH  22  27
BRANCH  23  32
ATOM     32  O3  IDS d 506      -8.835  51.324 171.732  0.00  0.00    -0.390 OA
ATOM     33  H   IDS d 506      -9.421  51.748 171.085  0.00  0.00     0.210 HD
ENDBRANCH  23  32
BRANCH  24  34
ATOM     34  O4  IDS d 506      -7.066  48.210 171.774  0.00  0.00    -0.390 OA
ATOM     35  H   IDS d 506      -6.470  47.774 172.403  0.00  0.00     0.210 HD
ENDBRANCH  24  34
BRANCH  25  36
ATOM     36  C6  IDS d 506      -7.691  48.138 174.708  0.00  0.00     0.206 C 
ATOM     37  O62 IDS d 506      -6.593  48.525 175.069  0.00  0.00    -0.646 OA
ATOM     38  O61 IDS d 506      -8.165  47.157 175.264  0.00  0.00    -0.646 OA
ENDBRANCH  25  36
ENDBRANCH  20  21
ENDBRANCH  11  20
BRANCH  12  39
ATOM     39  O3  SGN d 505     -11.243  47.970 175.300  0.00  0.00    -0.391 OA
ATOM     40  H   SGN d 505     -10.498  48.303 174.775  0.00  0.00     0.210 HD
ENDBRANCH  12  39
BRANCH  13  41
ATOM     41  N   SGN d 505     -13.724  48.284 176.853  0.00  0.00    -0.210 NA
ATOM     42  H   SGN d 505     -14.271  49.143 176.796  0.00  0.00     0.140 HD
BRANCH  41  43
ATOM     43  S1  SGN d 505     -14.423  47.322 178.034  0.00  0.00     0.156 S 
BRANCH  43  44
ATOM     44  O3S SGN d 505     -14.588  48.135 179.186  0.00  0.00    -0.296 OA
ATOM     45  H   SGN d 505     -15.235  48.833 178.999  0.00  0.00     0.231 HD
ENDBRANCH  43  44
BRANCH  43  46
ATOM     46  O1S SGN d 505     -15.677  46.825 177.508  0.00  0.00    -0.296 OA
ATOM     47  H   SGN d 505     -16.285  47.567 177.368  0.00  0.00     0.231 HD
ENDBRANCH  43  46
BRANCH  43  48
ATOM     48  O2S SGN d 505     -13.466  46.266 178.268  0.00  0.00    -0.296 OA
ATOM     49  H   SGN d 505     -12.645  46.645 178.619  0.00  0.00     0.231 HD
ENDBRANCH  43  48
ENDBRANCH  41  43
ENDBRANCH  13  41
ENDBRANCH   7   8
ENDBRANCH   2   7
BRANCH   1  50
ATOM     50  O3  IDS d 504     -18.723  50.079 175.335  0.00  0.00    -0.390 OA
ATOM     51  H   IDS d 504     -19.195  50.425 176.109  0.00  0.00     0.210 HD
ENDBRANCH   1  50
BRANCH   6  52
ATOM     52  C6  IDS d 504     -16.236  50.081 171.860  0.00  0.00     0.206 C 
ATOM     53  O62 IDS d 504     -16.914  49.358 171.127  0.00  0.00    -0.646 OA
ATOM     54  O61 IDS d 504     -15.119  50.402 171.475  0.00  0.00    -0.646 OA
ENDBRANCH   6  52
BRANCH   5  55
ATOM     55  O2  IDS d 504     -15.548  51.517 176.522  0.00  0.00    -0.244 OA
BRANCH  55  56
ATOM     56  S   IDS d 504     -15.184  51.946 177.955  0.00  0.00     0.252 S 
ATOM     57  O2S IDS d 504     -13.779  52.230 177.979  0.00  0.00    -0.572 OA
ATOM     58  O3S IDS d 504     -16.021  53.062 178.192  0.00  0.00    -0.572 OA
ATOM     59  O1S IDS d 504     -15.510  50.852 178.795  0.00  0.00    -0.572 OA
ENDBRANCH  55  56
ENDBRANCH   5  55
BRANCH   3  60
ATOM     60  O4  SGN d 503     -18.093  52.835 174.396  0.00  0.00    -0.348 OA
BRANCH  60  61
ATOM     61  C4  SGN d 503     -18.163  54.061 173.744  0.00  0.00     0.186 C 
ATOM     62  C5  SGN d 503     -18.622  55.130 174.751  0.00  0.00     0.181 C 
ATOM     63  O5  SGN d 503     -18.811  56.360 174.124  0.00  0.00    -0.349 OA
ATOM     64  C1  SGN d 503     -19.806  56.333 173.131  0.00  0.00     0.282 C 
ATOM     65  C2  SGN d 503     -19.410  55.333 172.035  0.00  0.00     0.157 C 
ATOM     66  C3  SGN d 503     -19.171  53.946 172.603  0.00  0.00     0.173 C 
BRANCH  62  67
ATOM     67  C6  SGN d 503     -17.635  55.413 175.851  0.00  0.00     0.227 C 
BRANCH  67  68
ATOM     68  O6  SGN d 503     -16.440  55.857 175.246  0.00  0.00    -0.254 OA
BRANCH  68  69
ATOM     69  S2  SGN d 503     -15.425  56.849 175.873  0.00  0.00     0.251 S 
ATOM     70  O6S SGN d 503     -15.969  58.117 175.578  0.00  0.00    -0.572 OA
ATOM     71  O4S SGN d 503     -15.407  56.640 177.281  0.00  0.00    -0.572 OA
ATOM     72  O5S SGN d 503     -14.127  56.575 175.264  0.00  0.00    -0.572 OA
ENDBRANCH  68  69
ENDBRANCH  67  68
ENDBRANCH  62  67
BRANCH  64  73
ATOM     73  O4  IDS d 502     -21.060  56.015 173.670  0.00  0.00    -0.348 OA
BRANCH  73  74
ATOM     74  C4  IDS d 502     -21.889  57.120 173.923  0.00  0.00     0.195 C 
ATOM     75  C3  IDS d 502     -23.336  56.785 173.514  0.00  0.00     0.185 C 
ATOM     76  C2  IDS d 502     -23.949  55.752 174.464  0.00  0.00     0.231 C 
ATOM     77  C1  IDS d 502     -23.728  56.123 175.927  0.00  0.00     0.291 C 
ATOM     78  O5  IDS d 502     -22.376  56.410 176.183  0.00  0.00    -0.340 OA
ATOM     79  C5  IDS d 502     -21.837  57.464 175.410  0.00  0.00     0.257 C 
BRANCH  75  80
ATOM     80  O3  IDS d 502     -24.117  57.962 173.583  0.00  0.00    -0.390 OA
ATOM     81  H   IDS d 502     -24.112  58.300 174.492  0.00  0.00     0.210 HD
ENDBRANCH  75  80
BRANCH  76  82
ATOM     82  O2  IDS d 502     -23.304  54.530 174.223  0.00  0.00    -0.244 OA
BRANCH  82  83
ATOM     83  S   IDS d 502     -23.538  53.542 173.033  0.00  0.00     0.252 S 
ATOM     84  O3S IDS d 502     -24.597  52.674 173.479  0.00  0.00    -0.572 OA
ATOM     85  O2S IDS d 502     -22.278  52.866 172.828  0.00  0.00    -0.572 OA
ATOM     86  O1S IDS d 502     -23.927  54.329 171.896  0.00  0.00    -0.572 OA
ENDBRANCH  82  83
ENDBRANCH  76  82
BRANCH  77  87
ATOM     87  O1  IDS d 502     -24.575  57.199 176.232  0.00  0.00    -0.368 OA
ATOM     88  H   IDS d 502     -24.360  57.952 175.659  0.00  0.00     0.212 HD
ENDBRANCH  77  87
BRANCH  79  89
ATOM     89  C6  IDS d 502     -20.453  57.848 175.914  0.00  0.00     0.206 C 
ATOM     90  O61 IDS d 502     -19.872  57.171 176.727  0.00  0.00    -0.646 OA
ATOM     91  O62 IDS d 502     -19.893  58.847 175.506  0.00  0.00    -0.646 OA
ENDBRANCH  79  89
ENDBRANCH  73  74
ENDBRANCH  64  73
BRANCH  65  92
ATOM     92  N   SGN d 503     -20.411  55.309 170.983  0.00  0.00    -0.210 NA
ATOM     93  H   SGN d 503     -21.320  55.451 171.423  0.00  0.00     0.140 HD
BRANCH  92  94
ATOM     94  S1  SGN d 503     -20.273  56.404 169.787  0.00  0.00     0.156 S 
BRANCH  94  95
ATOM     95  O2S SGN d 503     -18.913  56.330 169.255  0.00  0.00    -0.296 OA
ATOM     96  H   SGN d 503     -18.284  56.616 169.936  0.00  0.00     0.231 HD
ENDBRANCH  94  95
BRANCH  94  97
ATOM     97  O1S SGN d 503     -20.554  57.695 170.386  0.00  0.00    -0.296 OA
ATOM     98  H   SGN d 503     -19.845  57.924 171.007  0.00  0.00     0.231 HD
ENDBRANCH  94  97
BRANCH  94  99
ATOM     99  O3S SGN d 503     -21.292  55.997 168.846  0.00  0.00    -0.296 OA
ATOM    100  H   SGN d 503     -21.061  55.132 168.474  0.00  0.00     0.231 HD
ENDBRANCH  94  99
ENDBRANCH  92  94
ENDBRANCH  65  92
BRANCH  66 101
ATOM    101  O3  SGN d 503     -18.616  53.107 171.608  0.00  0.00    -0.391 OA
ATOM    102  H   SGN d 503     -18.466  52.223 171.977  0.00  0.00     0.210 HD
ENDBRANCH  66 101
ENDBRANCH  60  61
ENDBRANCH   3  60
TORSDOF 40
