REMARK  0 active torsions:
REMARK  status: ('A' for Active; 'I' for Inactive)
REMARK       I    between atoms: C1_1  and  O3_35 
REMARK       I    between atoms: O18_2  and  C12_24 
REMARK       I    between atoms: O18_2  and  S26_27 
REMARK       I    between atoms: S20_5  and  N14_19 
REMARK       I    between atoms: S20_5  and  O28_18 
REMARK       I    between atoms: S20_5  and  O29_7 
REMARK       I    between atoms: S20_5  and  O30_30 
REMARK       I    between atoms: C27_6  and  C19_33 
REMARK       I    between atoms: O9_8  and  C4_32 
REMARK       I    between atoms: S16_9  and  O11_10 
REMARK       I    between atoms: O11_10  and  C6_15 
REMARK       I    between atoms: O25_14  and  C17_17 
REMARK       I    between atoms: C6_15  and  C2_23 
REMARK       I    between atoms: N14_19  and  C8_29 
REMARK       I    between atoms: C10_22  and  O15_26 
REMARK       I    between atoms: C7_25  and  O3_35 
ROOT
ATOM      1  C1  H1S d 501      37.456   1.566  12.960  0.00  0.00     0.186 C 
ATOM      2  O18 H1S d 501      37.215   1.975  17.658  0.00  0.00    -0.244 OA
ATOM      3  O34 H1S d 501      35.305   5.741  14.856  0.00  0.00    -0.642 OA
ATOM      4  O35 H1S d 501      37.102   6.778  15.617  0.00  0.00    -0.642 OA
ATOM      5  S20 H1S d 501      34.294   1.945   9.013  0.00  0.00     0.156 S 
ATOM      6  C27 H1S d 501      36.445   5.743  15.364  0.00  0.00     0.233 C 
ATOM      7  O29 H1S d 501      34.087   0.487   9.296  0.00  0.00    -0.296 OA
ATOM      8  O9  H1S d 501      35.238   2.504  13.173  0.00  0.00    -0.391 OA
ATOM      9  S16 H1S d 501      41.812  -0.653  12.095  0.00  0.00     0.251 S 
ATOM     10  O11 H1S d 501      40.692   0.131  11.676  0.00  0.00    -0.254 OA
ATOM     11  O32 H1S d 501      37.316  -0.412  17.814  0.00  0.00    -0.572 OA
ATOM     12  O5  H1S d 501      38.044   0.652  10.771  0.00  0.00    -0.350 OA
ATOM     13  O23 H1S d 501      42.929  -0.501  11.106  0.00  0.00    -0.572 OA
ATOM     14  O25 H1S d 501      40.139   2.819  15.661  0.00  0.00    -0.389 OA
ATOM     15  C6  H1S d 501      39.612   0.377  12.580  0.00  0.00     0.227 C 
ATOM     16  O21 H1S d 501      42.272  -0.185  13.444  0.00  0.00    -0.572 OA
ATOM     17  C17 H1S d 501      39.073   3.059  16.585  0.00  0.00     0.179 C 
ATOM     18  O28 H1S d 501      35.195   2.099   7.824  0.00  0.00    -0.296 OA
ATOM     19  N14 H1S d 501      34.970   2.672  10.307  0.00  0.00    -0.210 NA
ATOM     20  O31 H1S d 501      36.554   0.941  19.709  0.00  0.00    -0.572 OA
ATOM     21  C24 H1S d 501      38.375   4.372  16.223  0.00  0.00     0.051 C 
ATOM     22  C10 H1S d 501      37.128   1.516  10.082  0.00  0.00     0.278 C 
ATOM     23  C2  H1S d 501      38.569   1.297  11.943  0.00  0.00     0.181 C 
ATOM     24  C12 H1S d 501      38.063   1.912  16.507  0.00  0.00     0.233 C 
ATOM     25  C7  H1S d 501      37.192   2.098  15.262  0.00  0.00     0.300 C 
ATOM     26  O15 H1S d 501      37.780   2.752   9.775  0.00  0.00    -0.369 OA
ATOM     27  S26 H1S d 501      37.496   0.887  18.544  0.00  0.00     0.252 S 
ATOM     28  O22 H1S d 501      41.408  -2.096  12.177  0.00  0.00    -0.572 OA
ATOM     29  C8  H1S d 501      35.915   1.771  10.981  0.00  0.00     0.157 C 
ATOM     30  O30 H1S d 501      32.971   2.591   8.725  0.00  0.00    -0.296 OA
ATOM     31  O13 H1S d 501      36.368   3.255  15.484  0.00  0.00    -0.311 OA
ATOM     32  C4  H1S d 501      36.364   2.410  12.296  0.00  0.00     0.173 C 
ATOM     33  C19 H1S d 501      37.084   4.393  15.698  0.00  0.00     0.147 C 
ATOM     34  O33 H1S d 501      38.908   0.992  19.040  0.00  0.00    -0.572 OA
ATOM     35  O3  H1S d 501      38.017   2.292  14.084  0.00  0.00    -0.348 OA
ATOM     36  H   H1S d 501      34.942   0.069   9.482  0.00  0.00     0.231 HD
ATOM     37  H   H1S d 501      35.513   2.909  14.011  0.00  0.00     0.210 HD
ATOM     38  H   H1S d 501      40.583   1.987  15.889  0.00  0.00     0.210 HD
ATOM     39  H   H1S d 501      36.050   1.681   8.010  0.00  0.00     0.231 HD
ATOM     40  H   H1S d 501      34.235   2.937  10.963  0.00  0.00     0.140 HD
ATOM     41  H   H1S d 501      38.076   3.174  10.597  0.00  0.00     0.212 HD
ATOM     42  H   H1S d 501      33.105   3.534   8.542  0.00  0.00     0.231 HD
ENDROOT
TORSDOF 16
