REMARK  0 active torsions:
REMARK  status: ('A' for Active; 'I' for Inactive)
REMARK       I    between atoms: C4_1  and  O4_9 
REMARK       I    between atoms: O6_3  and  C6_15 
REMARK       I    between atoms: C1_4  and  O1_21 
REMARK       I    between atoms: O2_6  and  C2_13 
REMARK       I    between atoms: C7_7  and  N2_10 
REMARK       I    between atoms: O3_8  and  C1_12 
REMARK       I    between atoms: O3_8  and  C3_16 
REMARK       I    between atoms: N2_10  and  C2_20 
REMARK       I    between atoms: C5_11  and  C6_15 
REMARK       I    between atoms: C5_18  and  C6_25 
REMARK       I    between atoms: O3_22  and  C3_24 
REMARK       I    between atoms: O6A_23  and  C6_25 
ROOT
ATOM      1  C4  NAG d 902       8.036  -8.843  30.765  0.00  0.00     0.180 C 
ATOM      2  O5  NAG d 902      10.249  -9.952  30.833  0.00  0.00    -0.349 OA
ATOM      3  O6  NAG d 902      10.291  -7.058  31.603  0.00  0.00    -0.398 OA
ATOM      4  C1  NAG d 902       9.637 -11.316  30.768  0.00  0.00     0.282 C 
ATOM      5  O7  NAG d 902       7.026 -12.552  33.684  0.00  0.00    -0.274 OA
ATOM      6  C7  NAG d 902       6.968 -13.136  32.567  0.00  0.00     0.214 C 
ATOM      7  O3  NAG d 902       6.065 -10.250  31.267  0.00  0.00    -0.348 OA
ATOM      8  O4  NAG d 902       7.248  -7.839  30.083  0.00  0.00    -0.390 OA
ATOM      9  N2  NAG d 902       7.539 -12.626  31.357  0.00  0.00    -0.349 N 
ATOM     10  C5  NAG d 902       9.422  -8.894  30.147  0.00  0.00     0.179 C 
ATOM     11  C6  NAG d 902      10.100  -7.527  30.241  0.00  0.00     0.198 C 
ATOM     12  C3  NAG d 902       7.386 -10.249  30.673  0.00  0.00     0.183 C 
ATOM     13  C2  NAG d 902       8.245 -11.282  31.412  0.00  0.00     0.171 C 
ATOM     14  O1  NAG d 902      10.452 -12.282  31.421  0.00  0.00    -0.369 OA
ATOM     15  C8  NAG d 902       6.237 -14.448  32.360  0.00  0.00     0.117 C 
ATOM     16  H   NAG d 902      10.724  -6.190  31.588  0.00  0.00     0.209 HD
ATOM     17  H   NAG d 902       7.183  -8.063  29.142  0.00  0.00     0.210 HD
ATOM     18  H   NAG d 902       7.476 -13.131  30.514  0.00  0.00     0.163 HD
ATOM     19  H   NAG d 902      10.544 -12.047  32.358  0.00  0.00     0.212 HD
ATOM     20  O2  GCD d 901       3.710 -11.450  32.461  0.00  0.00    -0.388 OA
ATOM     21  C1  GCD d 901       4.939 -10.633  30.504  0.00  0.00     0.298 C 
ATOM     22  C2  GCD d 901       3.669 -10.567  31.294  0.00  0.00     0.206 C 
ATOM     23  C4  GCD d 901       2.625 -10.543  28.838  0.00  0.00     0.051 C 
ATOM     24  O5  GCD d 901       4.837  -9.618  29.391  0.00  0.00    -0.311 OA
ATOM     25  C5  GCD d 901       3.677  -9.794  28.447  0.00  0.00     0.144 C 
ATOM     26  O6B GCD d 901       4.416  -8.115  27.046  0.00  0.00    -0.645 OA
ATOM     27  O3  GCD d 901       1.306 -10.923  31.009  0.00  0.00    -0.389 OA
ATOM     28  O6A GCD d 901       3.258  -9.915  26.105  0.00  0.00    -0.771 OA
ATOM     29  C3  GCD d 901       2.532 -11.007  30.306  0.00  0.00     0.177 C 
ATOM     30  C6  GCD d 901       3.874  -9.280  27.043  0.00  0.00     0.200 C 
ATOM     31  H   GCD d 901       4.418 -11.163  33.059  0.00  0.00     0.210 HD
ATOM     32  H   GCD d 901       1.428 -11.255  31.912  0.00  0.00     0.210 HD
ATOM     33  H   GCD d 901       2.915 -10.772  26.266  0.00  0.00     0.167 HD
ENDROOT
TORSDOF 11
