REMARK  16 active torsions:
REMARK  status: ('A' for Active; 'I' for Inactive)
REMARK    1  A    between atoms: C2_2  and  C6_20 
REMARK    2  A    between atoms: C4_3  and  O9_7 
REMARK    3  A    between atoms: O15_4  and  C10_16 
REMARK    4  A    between atoms: N14_5  and  C8_30 
REMARK    5  A    between atoms: N14_5  and  S20_35 
REMARK    6  A    between atoms: S16_6  and  O11_29 
REMARK    7  A    between atoms: C17_8  and  O25_21 
REMARK    8  A    between atoms: C7_9  and  O3_34 
REMARK    9  A    between atoms: C1_10  and  O3_34 
REMARK   10  A    between atoms: C19_11  and  C27_15 
REMARK   11  A    between atoms: S26_13  and  O18_22 
REMARK   12  A    between atoms: C6_20  and  O11_29 
REMARK   13  A    between atoms: O18_22  and  C12_32 
REMARK   14  A    between atoms: O30_23  and  S20_35 
REMARK   15  A    between atoms: O28_24  and  S20_35 
REMARK   16  A    between atoms: O29_31  and  S20_35 
ROOT
ATOM      1  C2  H1S d 601      28.042   8.863  13.671  0.00  0.00     0.181 C 
ATOM      2  C4  H1S d 601      29.742  10.599  13.146  0.00  0.00     0.173 C 
ATOM      3  C1  H1S d 601      28.263  10.364  13.460  0.00  0.00     0.186 C 
ATOM      4  C10 H1S d 601      29.802   8.305  12.154  0.00  0.00     0.278 C 
ATOM      5  O5  H1S d 601      28.409   8.150  12.477  0.00  0.00    -0.350 OA
ATOM      6  C8  H1S d 601      30.124   9.783  11.910  0.00  0.00     0.157 C 
ENDROOT
BRANCH   3   7
ATOM      7  O3  H1S d 601      27.900  11.106  14.653  0.00  0.00    -0.348 OA
BRANCH   7   8
ATOM      8  C7  H1S d 601      26.682  11.846  14.384  0.00  0.00     0.300 C 
ATOM      9  C12 H1S d 601      26.074  12.411  15.670  0.00  0.00     0.233 C 
ATOM     10  C17 H1S d 601      27.098  13.302  16.376  0.00  0.00     0.179 C 
ATOM     11  C24 H1S d 601      27.838  14.157  15.345  0.00  0.00     0.051 C 
ATOM     12  C19 H1S d 601      27.717  13.924  13.978  0.00  0.00     0.147 C 
ATOM     13  O13 H1S d 601      26.930  12.933  13.474  0.00  0.00    -0.311 OA
BRANCH   9  14
ATOM     14  O18 H1S d 601      24.933  13.197  15.313  0.00  0.00    -0.244 OA
BRANCH  14  15
ATOM     15  S26 H1S d 601      23.884  13.001  16.267  0.00  0.00     0.252 S 
ATOM     16  O33 H1S d 601      22.585  13.480  15.688  0.00  0.00    -0.572 OA
ATOM     17  O31 H1S d 601      23.774  11.543  16.600  0.00  0.00    -0.572 OA
ATOM     18  O32 H1S d 601      24.190  13.779  17.512  0.00  0.00    -0.572 OA
ENDBRANCH  14  15
ENDBRANCH   9  14
BRANCH  10  19
ATOM     19  O25 H1S d 601      28.045  12.487  17.074  0.00  0.00    -0.389 OA
ATOM     20  H   H1S d 601      28.505  11.913  16.442  0.00  0.00     0.210 HD
ENDBRANCH  10  19
BRANCH  12  21
ATOM     21  C27 H1S d 601      28.484  14.827  13.009  0.00  0.00     0.233 C 
ATOM     22  O34 H1S d 601      29.335  15.608  13.491  0.00  0.00    -0.642 OA
ATOM     23  O35 H1S d 601      28.226  14.732  11.792  0.00  0.00    -0.642 OA
ENDBRANCH  12  21
ENDBRANCH   7   8
ENDBRANCH   3   7
BRANCH   1  24
ATOM     24  C6  H1S d 601      26.567   8.597  13.986  0.00  0.00     0.227 C 
BRANCH  24  25
ATOM     25  O11 H1S d 601      25.715   8.985  12.903  0.00  0.00    -0.254 OA
BRANCH  25  26
ATOM     26  S16 H1S d 601      24.295   9.044  13.077  0.00  0.00     0.251 S 
ATOM     27  O21 H1S d 601      24.184  10.327  13.848  0.00  0.00    -0.572 OA
ATOM     28  O22 H1S d 601      24.064   7.745  13.786  0.00  0.00    -0.572 OA
ATOM     29  O23 H1S d 601      23.852   9.183  11.649  0.00  0.00    -0.572 OA
ENDBRANCH  25  26
ENDBRANCH  24  25
ENDBRANCH   1  24
BRANCH   2  30
ATOM     30  O9  H1S d 601      29.953  11.989  12.886  0.00  0.00    -0.391 OA
ATOM     31  H   H1S d 601      29.407  12.264  12.133  0.00  0.00     0.210 HD
ENDBRANCH   2  30
BRANCH   6  32
ATOM     32  N14 H1S d 601      31.554   9.961  11.622  0.00  0.00    -0.210 NA
ATOM     33  H   H1S d 601      32.094   9.327  12.211  0.00  0.00     0.140 HD
BRANCH  32  34
ATOM     34  S20 H1S d 601      31.880   9.642  10.056  0.00  0.00     0.156 S 
BRANCH  34  35
ATOM     35  O30 H1S d 601      31.980   8.160   9.851  0.00  0.00    -0.296 OA
ATOM     36  H   H1S d 601      31.139   7.742  10.095  0.00  0.00     0.231 HD
ENDBRANCH  34  35
BRANCH  34  37
ATOM     37  O28 H1S d 601      30.789  10.196   9.188  0.00  0.00    -0.296 OA
ATOM     38  H   H1S d 601      29.945   9.783   9.427  0.00  0.00     0.231 HD
ENDBRANCH  34  37
BRANCH  34  39
ATOM     39  O29 H1S d 601      33.180  10.288   9.678  0.00  0.00    -0.296 OA
ATOM     40  H   H1S d 601      33.891   9.934  10.235  0.00  0.00     0.231 HD
ENDBRANCH  34  39
ENDBRANCH  32  34
ENDBRANCH   6  32
BRANCH   4  41
ATOM     41  O15 H1S d 601      30.607   7.803  13.225  0.00  0.00    -0.369 OA
ATOM     42  H   H1S d 601      30.399   6.867  13.375  0.00  0.00     0.212 HD
ENDBRANCH   4  41
TORSDOF 16
