REMARK  25 active torsions:
REMARK  status: ('A' for Active; 'I' for Inactive)
REMARK    1  A    between atoms: N_1  and  C2_27 
REMARK       I    between atoms: N_1  and  C7_28 
REMARK    2  A    between atoms: O3_4  and  C3_48 
REMARK    3  A    between atoms: O6_5  and  C6_40 
REMARK    4  A    between atoms: C4_6  and  O4_50 
REMARK    5  A    between atoms: O1_8  and  C1_60 
REMARK    6  A    between atoms: C6_9  and  C5_20 
REMARK    7  A    between atoms: C6_9  and  O6B_26 
REMARK    8  A    between atoms: C3_10  and  O3_22 
REMARK    9  A    between atoms: C3_11  and  O3_33 
REMARK   10  A    between atoms: O4_12  and  C4_34 
REMARK   11  A    between atoms: O4_12  and  S_16 
REMARK   12  A    between atoms: C2_13  and  O2_32 
REMARK   13  A    between atoms: O2_15  and  C2_54 
REMARK   14  A    between atoms: O1_17  and  C1_30 
REMARK   15  A    between atoms: O1_17  and  C4_39 
REMARK   16  A    between atoms: C3_21  and  O3_24 
REMARK   17  A    between atoms: O3_22  and  C1_46 
REMARK   18  A    between atoms: N_29  and  C2_51 
REMARK       I    between atoms: N_29  and  C7_58 
REMARK   19  A    between atoms: C6_31  and  C5_59 
REMARK   20  A    between atoms: C6_31  and  O6B_55 
REMARK   21  A    between atoms: O3_33  and  C1_36 
REMARK   22  A    between atoms: C5_35  and  C6_49 
REMARK   23  A    between atoms: C6_40  and  C5_56 
REMARK   24  A    between atoms: S_43  and  O4_50 
REMARK   25  A    between atoms: C6_49  and  O6_53 
ROOT
ATOM      1  C4  GCT d 811       0.727  43.108  78.044  0.00  0.00     0.195 C 
ATOM      2  O5  GCT d 811       2.059  44.722  76.755  0.00  0.00    -0.340 OA
ATOM      3  C1  GCT d 811       2.957  44.864  77.843  0.00  0.00     0.292 C 
ATOM      4  C3  GCT d 811       2.041  42.781  78.756  0.00  0.00     0.183 C 
ATOM      5  C2  GCT d 811       2.628  44.120  79.132  0.00  0.00     0.204 C 
ATOM      6  C5  GCT d 811       0.768  44.170  76.939  0.00  0.00     0.253 C 
ENDROOT
BRANCH   1   7
ATOM      7  O1  ASG d 810       0.156  41.954  76.981  0.00  0.00    -0.348 OA
BRANCH   7   8
ATOM      8  C1  ASG d 810      -0.703  40.985  77.597  0.00  0.00     0.286 C 
ATOM      9  O5  ASG d 810       0.106  40.246  78.523  0.00  0.00    -0.349 OA
ATOM     10  C5  ASG d 810      -0.580  39.198  79.220  0.00  0.00     0.181 C 
ATOM     11  C4  ASG d 810      -1.217  38.198  78.235  0.00  0.00     0.207 C 
ATOM     12  C3  ASG d 810      -2.056  38.928  77.193  0.00  0.00     0.185 C 
ATOM     13  C2  ASG d 810      -1.190  39.989  76.529  0.00  0.00     0.171 C 
BRANCH  10  14
ATOM     14  C6  ASG d 810       0.414  38.555  80.181  0.00  0.00     0.199 C 
BRANCH  14  15
ATOM     15  O6  ASG d 810       1.079  39.662  80.771  0.00  0.00    -0.398 OA
ATOM     16  H   ASG d 810       1.739  39.342  81.406  0.00  0.00     0.209 HD
ENDBRANCH  14  15
ENDBRANCH  10  14
BRANCH  11  17
ATOM     17  O4  ASG d 810      -0.234  37.447  77.490  0.00  0.00    -0.246 OA
BRANCH  17  18
ATOM     18  S   ASG d 810      -0.158  35.811  77.549  0.00  0.00     0.252 S 
ATOM     19  OSC ASG d 810       1.324  35.418  77.085  0.00  0.00    -0.572 OA
ATOM     20  OSB ASG d 810      -1.143  35.143  76.699  0.00  0.00    -0.572 OA
ATOM     21  OSA ASG d 810      -0.264  35.520  78.972  0.00  0.00    -0.572 OA
ENDBRANCH  17  18
ENDBRANCH  11  17
BRANCH  12  22
ATOM     22  O3  ASG d 810      -2.488  37.996  76.170  0.00  0.00    -0.348 OA
BRANCH  22  23
ATOM     23  C1  GAD d 809      -3.881  38.001  75.866  0.00  0.00     0.298 C 
ATOM     24  C2  GAD d 809      -4.232  37.028  74.670  0.00  0.00     0.206 C 
ATOM     25  C3  GAD d 809      -5.759  36.922  74.559  0.00  0.00     0.177 C 
ATOM     26  C4  GAD d 809      -6.506  37.241  75.879  0.00  0.00     0.051 C 
ATOM     27  C5  GAD d 809      -5.947  37.604  77.070  0.00  0.00     0.144 C 
ATOM     28  O5  GAD d 809      -4.528  37.724  77.118  0.00  0.00    -0.311 OA
BRANCH  24  29
ATOM     29  O2  GAD d 809      -3.607  37.272  73.324  0.00  0.00    -0.388 OA
ATOM     30  H   GAD d 809      -3.951  38.099  72.953  0.00  0.00     0.210 HD
ENDBRANCH  24  29
BRANCH  25  31
ATOM     31  O3  GAD d 809      -6.177  35.590  74.158  0.00  0.00    -0.389 OA
ATOM     32  H   GAD d 809      -5.930  34.953  74.847  0.00  0.00     0.210 HD
ENDBRANCH  25  31
BRANCH  27  33
ATOM     33  C6  GAD d 809      -6.620  37.950  78.354  0.00  0.00     0.200 C 
ATOM     34  O6A GAD d 809      -7.791  38.393  78.240  0.00  0.00    -0.645 OA
BRANCH  33  35
ATOM     35  O6B GAD d 809      -5.939  37.885  79.450  0.00  0.00    -0.771 OA
ATOM     36  H   GAD d 809      -5.069  37.538  79.441  0.00  0.00     0.167 HD
ENDBRANCH  33  35
ENDBRANCH  27  33
ENDBRANCH  22  23
ENDBRANCH  12  22
BRANCH  13  37
ATOM     37  N   ASG d 810      -2.008  40.551  75.486  0.00  0.00    -0.349 N 
ATOM     38  C7  ASG d 810      -1.868  40.193  74.192  0.00  0.00     0.214 C 
ATOM     39  C8  ASG d 810      -3.064  40.567  73.326  0.00  0.00     0.117 C 
ATOM     40  O7  ASG d 810      -0.856  39.616  73.797  0.00  0.00    -0.274 OA
ATOM     41  H   ASG d 810      -2.692  41.218  75.724  0.00  0.00     0.163 HD
ENDBRANCH  13  37
ENDBRANCH   7   8
ENDBRANCH   1   7
BRANCH   4  42
ATOM     42  O3  GCT d 811       1.780  41.939  79.868  0.00  0.00    -0.390 OA
ATOM     43  H   GCT d 811       1.406  41.100  79.557  0.00  0.00     0.210 HD
ENDBRANCH   4  42
BRANCH   6  44
ATOM     44  C6  GCT d 811      -0.344  45.221  77.011  0.00  0.00     0.172 C 
ATOM     45  O6A GCT d 811      -0.160  46.375  76.521  0.00  0.00    -0.648 OA
BRANCH  44  46
ATOM     46  O6B GCT d 811      -1.415  44.859  77.543  0.00  0.00    -0.774 OA
ATOM     47  H   GCT d 811      -1.496  43.992  77.890  0.00  0.00     0.167 HD
ENDBRANCH  44  46
ENDBRANCH   6  44
BRANCH   5  48
ATOM     48  O2  GCT d 811       3.879  43.903  79.713  0.00  0.00    -0.388 OA
ATOM     49  H   GCT d 811       4.272  44.754  79.962  0.00  0.00     0.210 HD
ENDBRANCH   5  48
BRANCH   3  50
ATOM     50  O3  ASG d 812       3.191  46.237  78.146  0.00  0.00    -0.348 OA
BRANCH  50  51
ATOM     51  C3  ASG d 812       4.086  46.817  77.181  0.00  0.00     0.185 C 
ATOM     52  C2  ASG d 812       5.141  47.516  78.013  0.00  0.00     0.171 C 
ATOM     53  C1  ASG d 812       6.109  48.318  77.144  0.00  0.00     0.282 C 
ATOM     54  O5  ASG d 812       5.395  49.269  76.375  0.00  0.00    -0.349 OA
ATOM     55  C5  ASG d 812       4.496  48.575  75.477  0.00  0.00     0.181 C 
ATOM     56  C4  ASG d 812       3.415  47.863  76.313  0.00  0.00     0.207 C 
BRANCH  52  57
ATOM     57  N   ASG d 812       5.890  46.486  78.684  0.00  0.00    -0.349 N 
ATOM     58  C7  ASG d 812       6.239  46.534  79.983  0.00  0.00     0.214 C 
ATOM     59  C8  ASG d 812       6.726  45.185  80.504  0.00  0.00     0.117 C 
ATOM     60  O7  ASG d 812       6.165  47.619  80.625  0.00  0.00    -0.274 OA
ATOM     61  H   ASG d 812       6.164  45.698  78.161  0.00  0.00     0.163 HD
ENDBRANCH  52  57
BRANCH  53  62
ATOM     62  O1  ASG d 812       7.004  48.999  78.021  0.00  0.00    -0.369 OA
ATOM     63  H   ASG d 812       7.634  49.520  77.499  0.00  0.00     0.212 HD
ENDBRANCH  53  62
BRANCH  55  64
ATOM     64  C6  ASG d 812       3.970  49.517  74.410  0.00  0.00     0.199 C 
BRANCH  64  65
ATOM     65  O6  ASG d 812       5.060  49.915  73.578  0.00  0.00    -0.398 OA
ATOM     66  H   ASG d 812       5.733  50.360  74.117  0.00  0.00     0.209 HD
ENDBRANCH  64  65
ENDBRANCH  55  64
BRANCH  56  67
ATOM     67  O4  ASG d 812       2.732  48.746  77.213  0.00  0.00    -0.246 OA
BRANCH  67  68
ATOM     68  S   ASG d 812       1.466  49.696  76.794  0.00  0.00     0.252 S 
ATOM     69  OSA ASG d 812       0.735  49.094  75.720  0.00  0.00    -0.572 OA
ATOM     70  OSB ASG d 812       0.587  49.891  77.897  0.00  0.00    -0.572 OA
ATOM     71  OSC ASG d 812       2.052  51.121  76.294  0.00  0.00    -0.572 OA
ENDBRANCH  67  68
ENDBRANCH  56  67
ENDBRANCH  50  51
ENDBRANCH   3  50
TORSDOF 25
