REMARK  0 active torsions:
REMARK  status: ('A' for Active; 'I' for Inactive)
REMARK       I    between atoms: C6_1  and  C5_31 
REMARK       I    between atoms: C6_1  and  O6_74 
REMARK       I    between atoms: S_2  and  O2_21 
REMARK       I    between atoms: C3_3  and  O3_105 
REMARK       I    between atoms: C2_4  and  N_32 
REMARK       I    between atoms: O3_5  and  C3_62 
REMARK       I    between atoms: S1_6  and  N_32 
REMARK       I    between atoms: S1_6  and  O1S_49 
REMARK       I    between atoms: S1_6  and  O2S_91 
REMARK       I    between atoms: S1_6  and  O3S_83 
REMARK       I    between atoms: O1S_7  and  S1_82 
REMARK       I    between atoms: C2_8  and  N_100 
REMARK       I    between atoms: O3_9  and  C3_48 
REMARK       I    between atoms: O2S_10  and  S1_39 
REMARK       I    between atoms: C6_11  and  C5_17 
REMARK       I    between atoms: C4_12  and  O4_81 
REMARK       I    between atoms: O3_14  and  C3_46 
REMARK       I    between atoms: C1_15  and  O4_34 
REMARK       I    between atoms: C5_16  and  C6_71 
REMARK       I    between atoms: O3_19  and  C3_92 
REMARK       I    between atoms: O4_20  and  C4_79 
REMARK       I    between atoms: O4_20  and  C1_78 
REMARK       I    between atoms: O2_21  and  C2_89 
REMARK       I    between atoms: O6_22  and  C6_66 
REMARK       I    between atoms: O6_22  and  S2_40 
REMARK       I    between atoms: C4_25  and  O4_101 
REMARK       I    between atoms: C5_27  and  C6_99 
REMARK       I    between atoms: O1_28  and  C1_84 
REMARK       I    between atoms: O3_30  and  C3_80 
REMARK       I    between atoms: O4_34  and  C4_63 
REMARK       I    between atoms: O6_36  and  C6_99 
REMARK       I    between atoms: O6_36  and  S2_67 
REMARK       I    between atoms: N_38  and  C2_59 
REMARK       I    between atoms: N_38  and  S1_39 
REMARK       I    between atoms: S1_39  and  O1S_75 
REMARK       I    between atoms: S1_39  and  O3S_64 
REMARK       I    between atoms: C4_41  and  O4_72 
REMARK       I    between atoms: C1_44  and  O4_101 
REMARK       I    between atoms: C1_45  and  O4_81 
REMARK       I    between atoms: C1_47  and  O4_72 
REMARK       I    between atoms: C6_52  and  C5_68 
REMARK       I    between atoms: C5_54  and  C6_66 
REMARK       I    between atoms: O2_56  and  C2_65 
REMARK       I    between atoms: O2_56  and  S_87 
REMARK       I    between atoms: C2_57  and  O2_98 
REMARK       I    between atoms: O3S_70  and  S1_82 
REMARK       I    between atoms: O6_74  and  S2_86 
REMARK       I    between atoms: O2S_77  and  S1_82 
REMARK       I    between atoms: S1_82  and  N_100 
REMARK       I    between atoms: S_96  and  O2_98 
ROOT
ATOM      1  C6  SGN d1713     -19.625  -1.605 -27.746  0.00  0.00     0.227 C 
ATOM      2  C2  SGN d1713     -19.395  -1.235 -23.545  0.00  0.00     0.157 C 
ATOM      3  S1  SGN d1713     -18.389  -0.497 -21.183  0.00  0.00     0.156 S 
ATOM      4  O3  SGN d1713     -21.737  -1.631 -23.315  0.00  0.00    -0.391 OA
ATOM      5  O5  SGN d1713     -18.447  -1.232 -25.771  0.00  0.00    -0.349 OA
ATOM      6  C5  SGN d1713     -19.504  -2.051 -26.320  0.00  0.00     0.181 C 
ATOM      7  N   SGN d1713     -19.135  -1.527 -22.156  0.00  0.00    -0.210 NA
ATOM      8  C4  SGN d1713     -20.798  -1.838 -25.494  0.00  0.00     0.186 C 
ATOM      9  C1  SGN d1713     -18.154  -1.495 -24.407  0.00  0.00     0.282 C 
ATOM     10  C3  SGN d1713     -20.567  -2.081 -24.005  0.00  0.00     0.173 C 
ATOM     11  O1S SGN d1713     -16.983  -0.581 -21.458  0.00  0.00    -0.296 OA
ATOM     12  O4  SGN d1713     -21.698  -2.811 -26.050  0.00  0.00    -0.348 OA
ATOM     13  O6  SGN d1713     -20.083  -0.247 -27.774  0.00  0.00    -0.254 OA
ATOM     14  O3S SGN d1713     -18.636  -1.018 -19.684  0.00  0.00    -0.296 OA
ATOM     15  S2  SGN d1713     -20.565   0.285 -29.169  0.00  0.00     0.251 S 
ATOM     16  O4S SGN d1713     -21.679  -0.505 -29.733  0.00  0.00    -0.572 OA
ATOM     17  O2S SGN d1713     -18.963   0.778 -21.507  0.00  0.00    -0.296 OA
ATOM     18  O5S SGN d1713     -19.339   0.090 -30.179  0.00  0.00    -0.572 OA
ATOM     19  O6S SGN d1713     -20.862   1.678 -28.925  0.00  0.00    -0.572 OA
ATOM     20  H   SGN d1713     -21.624  -1.771 -22.362  0.00  0.00     0.210 HD
ATOM     21  H   SGN d1713     -18.577  -2.381 -22.146  0.00  0.00     0.140 HD
ATOM     22  H   SGN d1713     -16.811  -0.270 -22.361  0.00  0.00     0.231 HD
ATOM     23  H   SGN d1713     -18.211  -1.882 -19.568  0.00  0.00     0.231 HD
ATOM     24  H   SGN d1713     -18.758   1.000 -22.429  0.00  0.00     0.231 HD
ATOM     25  S   IDS d1714     -24.972  -3.316 -29.587  0.00  0.00     0.252 S 
ATOM     26  C5  IDS d1714     -24.167  -2.653 -24.673  0.00  0.00     0.228 C 
ATOM     27  O2  IDS d1714     -24.578  -2.815 -28.186  0.00  0.00    -0.244 OA
ATOM     28  O3  IDS d1714     -23.059  -5.396 -26.169  0.00  0.00    -0.393 OA
ATOM     29  C1  IDS d1714     -22.868  -2.222 -26.646  0.00  0.00     0.294 C 
ATOM     30  O1S IDS d1714     -23.913  -2.818 -30.472  0.00  0.00    -0.572 OA
ATOM     31  C4  IDS d1714     -24.772  -3.943 -25.212  0.00  0.00     0.077 C 
ATOM     32  O3S IDS d1714     -26.327  -2.833 -29.931  0.00  0.00    -0.572 OA
ATOM     33  O61 IDS d1714     -25.166  -0.707 -23.728  0.00  0.00    -0.646 OA
ATOM     34  C6  IDS d1714     -24.995  -1.945 -23.613  0.00  0.00     0.203 C 
ATOM     35  O62 IDS d1714     -25.480  -2.598 -22.659  0.00  0.00    -0.646 OA
ATOM     36  C3  IDS d1714     -24.088  -4.447 -26.490  0.00  0.00     0.156 C 
ATOM     37  C2  IDS d1714     -23.512  -3.361 -27.392  0.00  0.00     0.228 C 
ATOM     38  O5  IDS d1714     -23.817  -1.717 -25.690  0.00  0.00    -0.343 OA
ATOM     39  O2S IDS d1714     -24.954  -4.801 -29.535  0.00  0.00    -0.572 OA
ATOM     40  H   IDS d1714     -23.424  -6.087 -25.595  0.00  0.00     0.210 HD
ATOM     41  C3  IDS d1710     -10.193 -10.662 -26.978  0.00  0.00     0.185 C 
ATOM     42  C6  IDS d1710     -12.048 -10.157 -23.606  0.00  0.00     0.206 C 
ATOM     43  C5  IDS d1710     -10.962 -10.416 -24.617  0.00  0.00     0.257 C 
ATOM     44  O5  IDS d1710      -9.941  -9.415 -24.438  0.00  0.00    -0.340 OA
ATOM     45  O1S IDS d1710      -8.654  -6.176 -27.948  0.00  0.00    -0.572 OA
ATOM     46  O62 IDS d1710     -11.954  -9.094 -22.941  0.00  0.00    -0.646 OA
ATOM     47  O4  IDS d1710     -12.002  -9.136 -26.386  0.00  0.00    -0.348 OA
ATOM     48  O3S IDS d1710      -7.597  -8.203 -28.837  0.00  0.00    -0.572 OA
ATOM     49  O2S IDS d1710      -7.097  -7.459 -26.570  0.00  0.00    -0.572 OA
ATOM     50  C1  IDS d1710      -8.718  -9.648 -25.135  0.00  0.00     0.294 C 
ATOM     51  C2  IDS d1710      -8.998  -9.757 -26.643  0.00  0.00     0.231 C 
ATOM     52  C4  IDS d1710     -11.412 -10.407 -26.086  0.00  0.00     0.195 C 
ATOM     53  O61 IDS d1710     -12.988 -10.973 -23.483  0.00  0.00    -0.646 OA
ATOM     54  S   IDS d1710      -8.101  -7.501 -27.653  0.00  0.00     0.252 S 
ATOM     55  O2  IDS d1710      -9.257  -8.442 -27.156  0.00  0.00    -0.244 OA
ATOM     56  O3  IDS d1710      -9.824 -12.039 -26.887  0.00  0.00    -0.390 OA
ATOM     57  H   IDS d1710      -9.573 -12.247 -25.973  0.00  0.00     0.210 HD
ATOM     58  O3  IDS d1712     -14.705  -4.409 -23.031  0.00  0.00    -0.390 OA
ATOM     59  C4  IDS d1712     -16.374  -3.169 -24.258  0.00  0.00     0.195 C 
ATOM     60  O5  IDS d1712     -16.718  -4.918 -25.887  0.00  0.00    -0.340 OA
ATOM     61  O3S IDS d1712     -18.809  -4.411 -21.343  0.00  0.00    -0.572 OA
ATOM     62  O2S IDS d1712     -17.817  -6.651 -21.172  0.00  0.00    -0.572 OA
ATOM     63  C6  IDS d1712     -15.980  -2.744 -26.706  0.00  0.00     0.206 C 
ATOM     64  O2  IDS d1712     -18.165  -5.645 -23.331  0.00  0.00    -0.244 OA
ATOM     65  C3  IDS d1712     -16.119  -4.225 -23.192  0.00  0.00     0.185 C 
ATOM     66  C2  IDS d1712     -16.752  -5.588 -23.575  0.00  0.00     0.231 C 
ATOM     67  C5  IDS d1712     -15.930  -3.756 -25.604  0.00  0.00     0.257 C 
ATOM     68  C1  IDS d1712     -16.516  -6.010 -25.002  0.00  0.00     0.294 C 
ATOM     69  O4  IDS d1712     -17.776  -2.874 -24.243  0.00  0.00    -0.348 OA
ATOM     70  O61 IDS d1712     -15.289  -1.712 -26.554  0.00  0.00    -0.646 OA
ATOM     71  S   IDS d1712     -18.739  -5.788 -21.917  0.00  0.00     0.252 S 
ATOM     72  O1S IDS d1712     -20.061  -6.388 -22.141  0.00  0.00    -0.572 OA
ATOM     73  O62 IDS d1712     -16.686  -2.952 -27.709  0.00  0.00    -0.646 OA
ATOM     74  H   IDS d1712     -14.294  -3.564 -22.791  0.00  0.00     0.210 HD
ATOM     75  O1S SGN d1709      -8.812 -13.752 -18.114  0.00  0.00    -0.296 OA
ATOM     76  C2  SGN d1709      -7.408 -11.982 -21.180  0.00  0.00     0.157 C 
ATOM     77  O3  SGN d1709      -9.473 -11.252 -22.115  0.00  0.00    -0.391 OA
ATOM     78  O6  SGN d1709      -3.983 -10.670 -24.778  0.00  0.00    -0.254 OA
ATOM     79  C4  SGN d1709      -7.483 -10.842 -23.418  0.00  0.00     0.186 C 
ATOM     80  O1  SGN d1709      -5.957 -13.715 -22.078  0.00  0.00    -0.369 OA
ATOM     81  O5  SGN d1709      -5.404 -11.455 -22.443  0.00  0.00    -0.350 OA
ATOM     82  S2  SGN d1709      -2.966  -9.692 -25.395  0.00  0.00     0.251 S 
ATOM     83  C3  SGN d1709      -8.202 -11.793 -22.478  0.00  0.00     0.173 C 
ATOM     84  O6S SGN d1709      -2.801  -8.566 -24.465  0.00  0.00    -0.572 OA
ATOM     85  C5  SGN d1709      -6.053 -11.309 -23.707  0.00  0.00     0.181 C 
ATOM     86  O4S SGN d1709      -3.401  -9.342 -26.746  0.00  0.00    -0.572 OA
ATOM     87  C6  SGN d1709      -5.290 -10.221 -24.471  0.00  0.00     0.227 C 
ATOM     88  O3S SGN d1709      -7.698 -11.547 -18.245  0.00  0.00    -0.296 OA
ATOM     89  O2S SGN d1709      -6.446 -13.632 -18.405  0.00  0.00    -0.296 OA
ATOM     90  S1  SGN d1709      -7.716 -13.035 -18.727  0.00  0.00     0.156 S 
ATOM     91  C1  SGN d1709      -5.978 -12.397 -21.538  0.00  0.00     0.278 C 
ATOM     92  O5S SGN d1709      -1.554 -10.527 -25.462  0.00  0.00    -0.572 OA
ATOM     93  N   SGN d1709      -7.998 -12.979 -20.295  0.00  0.00    -0.210 NA
ATOM     94  O4  SGN d1709      -8.122 -10.884 -24.705  0.00  0.00    -0.348 OA
ATOM     95  H   SGN d1709      -8.669 -13.803 -17.156  0.00  0.00     0.231 HD
ATOM     96  H   SGN d1709      -9.926 -11.865 -21.515  0.00  0.00     0.210 HD
ATOM     97  H   SGN d1709      -6.353 -14.331 -21.442  0.00  0.00     0.212 HD
ATOM     98  H   SGN d1709      -7.529 -11.518 -17.290  0.00  0.00     0.231 HD
ATOM     99  H   SGN d1709      -6.327 -13.640 -17.442  0.00  0.00     0.231 HD
ATOM    100  H   SGN d1709      -7.710 -13.885 -20.663  0.00  0.00     0.140 HD
ATOM    101  O2S SGN d1711     -12.744  -7.151 -30.961  0.00  0.00    -0.296 OA
ATOM    102  C1  SGN d1711     -13.105  -9.281 -27.285  0.00  0.00     0.282 C 
ATOM    103  O3  SGN d1711     -14.026  -5.600 -27.661  0.00  0.00    -0.391 OA
ATOM    104  O4  SGN d1711     -15.181  -6.502 -25.103  0.00  0.00    -0.348 OA
ATOM    105  C5  SGN d1711     -14.679  -8.702 -25.562  0.00  0.00     0.181 C 
ATOM    106  O6S SGN d1711     -19.007 -10.427 -26.385  0.00  0.00    -0.572 OA
ATOM    107  O6  SGN d1711     -16.857  -9.605 -25.764  0.00  0.00    -0.254 OA
ATOM    108  N   SGN d1711     -12.043  -7.557 -28.684  0.00  0.00    -0.210 NA
ATOM    109  S1  SGN d1711     -11.859  -7.996 -30.220  0.00  0.00     0.156 S 
ATOM    110  O5S SGN d1711     -17.866 -11.374 -24.310  0.00  0.00    -0.572 OA
ATOM    111  O5  SGN d1711     -14.305  -9.626 -26.601  0.00  0.00    -0.349 OA
ATOM    112  C2  SGN d1711     -13.269  -7.910 -27.971  0.00  0.00     0.157 C 
ATOM    113  O3S SGN d1711     -10.317  -7.724 -30.512  0.00  0.00    -0.296 OA
ATOM    114  S2  SGN d1711     -18.214 -10.144 -25.262  0.00  0.00     0.251 S 
ATOM    115  O1S SGN d1711     -12.149  -9.413 -30.318  0.00  0.00    -0.296 OA
ATOM    116  C4  SGN d1711     -14.988  -7.346 -26.259  0.00  0.00     0.186 C 
ATOM    117  C3  SGN d1711     -13.734  -6.826 -26.982  0.00  0.00     0.173 C 
ATOM    118  O4S SGN d1711     -18.788  -9.042 -24.482  0.00  0.00    -0.572 OA
ATOM    119  C6  SGN d1711     -15.834  -9.362 -24.807  0.00  0.00     0.227 C 
ATOM    120  H   SGN d1711     -13.662  -7.369 -30.737  0.00  0.00     0.231 HD
ATOM    121  H   SGN d1711     -13.228  -5.282 -28.113  0.00  0.00     0.210 HD
ATOM    122  H   SGN d1711     -11.269  -7.970 -28.164  0.00  0.00     0.140 HD
ATOM    123  H   SGN d1711     -10.138  -6.773 -30.443  0.00  0.00     0.231 HD
ATOM    124  H   SGN d1711     -13.090  -9.564 -30.138  0.00  0.00     0.231 HD
ENDROOT
TORSDOF 50
