REMARK  0 active torsions:
REMARK  status: ('A' for Active; 'I' for Inactive)
REMARK       I    between atoms: O2S_2  and  S1_19 
REMARK       I    between atoms: C3_3  and  O3_35 
REMARK       I    between atoms: O2_5  and  C2_22 
REMARK       I    between atoms: O2_5  and  S_7 
REMARK       I    between atoms: O1_6  and  C1_12 
REMARK       I    between atoms: O4_8  and  C1_32 
REMARK       I    between atoms: O4_8  and  C4_20 
REMARK       I    between atoms: C5_10  and  C6_33 
REMARK       I    between atoms: C5_14  and  C6_23 
REMARK       I    between atoms: O3_17  and  C3_31 
REMARK       I    between atoms: S1_19  and  N_30 
REMARK       I    between atoms: S1_19  and  O1S_28 
REMARK       I    between atoms: S1_19  and  O3S_25 
REMARK       I    between atoms: S2_21  and  O6_29 
REMARK       I    between atoms: C2_24  and  N_30 
REMARK       I    between atoms: O6_29  and  C6_33 
ROOT
ATOM      1  O5S SGN d5702      66.543  35.964  34.490  0.00  0.00    -0.572 OA
ATOM      2  O2S SGN d5702      60.636  38.422  42.784  0.00  0.00    -0.296 OA
ATOM      3  O1  SGN d5702      61.982  36.738  38.448  0.00  0.00    -0.369 OA
ATOM      4  O4  SGN d5702      64.425  40.270  36.697  0.00  0.00    -0.348 OA
ATOM      5  O5  SGN d5702      64.286  37.100  38.475  0.00  0.00    -0.350 OA
ATOM      6  C5  SGN d5702      64.412  37.972  37.378  0.00  0.00     0.181 C 
ATOM      7  O4S SGN d5702      65.804  37.506  32.903  0.00  0.00    -0.572 OA
ATOM      8  C1  SGN d5702      63.068  37.194  39.219  0.00  0.00     0.278 C 
ATOM      9  O3  SGN d5702      62.692  40.878  39.000  0.00  0.00    -0.391 OA
ATOM     10  S1  SGN d5702      61.891  38.667  42.152  0.00  0.00     0.156 S 
ATOM     11  C4  SGN d5702      64.270  39.426  37.871  0.00  0.00     0.186 C 
ATOM     12  S2  SGN d5702      66.458  37.359  34.163  0.00  0.00     0.251 S 
ATOM     13  C2  SGN d5702      62.888  38.624  39.694  0.00  0.00     0.157 C 
ATOM     14  O3S SGN d5702      62.442  39.969  42.476  0.00  0.00    -0.296 OA
ATOM     15  O1S SGN d5702      62.769  37.562  42.482  0.00  0.00    -0.296 OA
ATOM     16  O6  SGN d5702      65.587  38.165  35.423  0.00  0.00    -0.254 OA
ATOM     17  N   SGN d5702      61.652  38.688  40.402  0.00  0.00    -0.210 NA
ATOM     18  C3  SGN d5702      62.867  39.567  38.520  0.00  0.00     0.173 C 
ATOM     19  C6  SGN d5702      65.750  37.713  36.759  0.00  0.00     0.227 C 
ATOM     20  O6S SGN d5702      67.736  38.007  34.114  0.00  0.00    -0.572 OA
ATOM     21  H   SGN d5702      60.315  37.542  42.534  0.00  0.00     0.231 HD
ATOM     22  H   SGN d5702      62.145  35.823  38.170  0.00  0.00     0.212 HD
ATOM     23  H   SGN d5702      62.677  41.496  38.253  0.00  0.00     0.210 HD
ATOM     24  H   SGN d5702      61.806  40.659  42.231  0.00  0.00     0.231 HD
ATOM     25  H   SGN d5702      62.341  36.726  42.241  0.00  0.00     0.231 HD
ATOM     26  H   SGN d5702      61.170  39.550  40.146  0.00  0.00     0.140 HD
ATOM     27  C3  IDU d1623      63.172  43.217  34.688  0.00  0.00     0.156 C 
ATOM     28  O1S IDU d1623      67.606  43.402  34.256  0.00  0.00    -0.572 OA
ATOM     29  O2  IDU d1623      65.419  42.530  35.224  0.00  0.00    -0.244 OA
ATOM     30  S   IDU d1623      66.315  42.973  33.809  0.00  0.00     0.252 S 
ATOM     31  C4  IDU d1623      63.266  44.265  35.808  0.00  0.00     0.077 C 
ATOM     32  C5  IDU d1623      62.878  43.623  37.150  0.00  0.00     0.228 C 
ATOM     33  O3S IDU d1623      66.361  41.898  32.890  0.00  0.00    -0.572 OA
ATOM     34  O5  IDU d1623      63.763  42.474  37.400  0.00  0.00    -0.343 OA
ATOM     35  O61 IDU d1623      62.312  45.693  38.131  0.00  0.00    -0.646 OA
ATOM     36  C2  IDU d1623      64.105  42.053  35.056  0.00  0.00     0.228 C 
ATOM     37  C6  IDU d1623      63.013  44.665  38.227  0.00  0.00     0.203 C 
ATOM     38  O62 IDU d1623      63.810  44.450  39.153  0.00  0.00    -0.646 OA
ATOM     39  O2S IDU d1623      65.666  44.071  33.109  0.00  0.00    -0.572 OA
ATOM     40  C1  IDU d1623      63.667  41.421  36.387  0.00  0.00     0.294 C 
ATOM     41  O3  IDU d1623      61.852  42.761  34.584  0.00  0.00    -0.393 OA
ATOM     42  H   IDU d1623      61.576  42.375  35.430  0.00  0.00     0.210 HD
ENDROOT
TORSDOF 16
