REMARK  0 active torsions:
REMARK  status: ('A' for Active; 'I' for Inactive)
REMARK       I    between atoms: N_1  and  C2_50 
REMARK       I    between atoms: N_1  and  S1_70 
REMARK       I    between atoms: C1_2  and  O4_62 
REMARK       I    between atoms: O1S_4  and  S1_70 
REMARK       I    between atoms: C6_5  and  C5_85 
REMARK       I    between atoms: C6_5  and  O6_55 
REMARK       I    between atoms: N_7  and  C2_23 
REMARK       I    between atoms: N_7  and  S1_49 
REMARK       I    between atoms: C4_11  and  O4_21 
REMARK       I    between atoms: O2_12  and  C2_42 
REMARK       I    between atoms: C6_13  and  C5_53 
REMARK       I    between atoms: C6_13  and  O6_63 
REMARK       I    between atoms: O6_16  and  C6_69 
REMARK       I    between atoms: O6_16  and  S2_79 
REMARK       I    between atoms: C3_17  and  O3_78 
REMARK       I    between atoms: C3_18  and  O3_83 
REMARK       I    between atoms: C6_19  and  C5_20 
REMARK       I    between atoms: O4_21  and  C1_52 
REMARK       I    between atoms: C3_22  and  O3_37 
REMARK       I    between atoms: O2_25  and  C2_81 
REMARK       I    between atoms: O2_25  and  S_71 
REMARK       I    between atoms: O3S_26  and  S1_49 
REMARK       I    between atoms: O4_28  and  C1_51 
REMARK       I    between atoms: O4_28  and  C4_30 
REMARK       I    between atoms: O3_29  and  C3_72 
REMARK       I    between atoms: S2_31  and  O6_63 
REMARK       I    between atoms: C4_33  and  O4_40 
REMARK       I    between atoms: C4_34  and  O4_64 
REMARK       I    between atoms: O6A_39  and  C1_73 
REMARK       I    between atoms: S_41  and  O6_55 
REMARK       I    between atoms: C1_46  and  O4_64 
REMARK       I    between atoms: O2S_47  and  S1_49 
REMARK       I    between atoms: S1_49  and  O1S_59 
REMARK       I    between atoms: O3S_54  and  S1_70 
REMARK       I    between atoms: N_58  and  C2_82 
REMARK       I    between atoms: N_58  and  C_60 
REMARK       I    between atoms: O3_61  and  C3_75 
REMARK       I    between atoms: O4_62  and  C4_68 
REMARK       I    between atoms: C5_67  and  C6_86 
REMARK       I    between atoms: C6_69  and  C5_84 
REMARK       I    between atoms: S1_70  and  O2S_80 
ROOT
ATOM      1  N   SGN d   5      16.031  10.248 -10.360  0.00  0.00    -0.210 NA
ATOM      2  O1S SGN d   5      15.732   9.126 -12.541  0.00  0.00    -0.296 OA
ATOM      3  O5  SGN d   5      12.431  10.507  -9.688  0.00  0.00    -0.349 OA
ATOM      4  C6  SGN d   5      11.090  11.191  -7.839  0.00  0.00     0.227 C 
ATOM      5  S2  SGN d   5       8.945  12.316  -8.713  0.00  0.00     0.251 S 
ATOM      6  O4S SGN d   5       8.689  13.643  -9.258  0.00  0.00    -0.572 OA
ATOM      7  C2  SGN d   5      14.759  10.909 -10.092  0.00  0.00     0.157 C 
ATOM      8  C5  SGN d   5      12.490  10.817  -8.316  0.00  0.00     0.181 C 
ATOM      9  O3S SGN d   5      17.963   9.624 -11.774  0.00  0.00    -0.296 OA
ATOM     10  O6S SGN d   5       8.538  12.252  -7.313  0.00  0.00    -0.572 OA
ATOM     11  O3  SGN d   5      15.452  12.930  -9.015  0.00  0.00    -0.391 OA
ATOM     12  O4  SGN d   5      13.763  12.055  -6.686  0.00  0.00    -0.348 OA
ATOM     13  O6  SGN d   5      10.488  12.072  -8.763  0.00  0.00    -0.254 OA
ATOM     14  C4  SGN d   5      13.502  11.937  -8.074  0.00  0.00     0.186 C 
ATOM     15  S1  SGN d   5      16.585  10.097 -11.861  0.00  0.00     0.156 S 
ATOM     16  C1  SGN d   5      13.620   9.891 -10.123  0.00  0.00     0.280 C 
ATOM     17  O5S SGN d   5       8.324  11.270  -9.521  0.00  0.00    -0.572 OA
ATOM     18  C3  SGN d   5      14.841  11.682  -8.769  0.00  0.00     0.173 C 
ATOM     19  O2S SGN d   5      16.506  11.423 -12.467  0.00  0.00    -0.296 OA
ATOM     20  H   SGN d   5      15.952   9.303  -9.984  0.00  0.00     0.140 HD
ATOM     21  H   SGN d   5      15.815   8.262 -12.107  0.00  0.00     0.231 HD
ATOM     22  H   SGN d   5      17.977   8.743 -11.368  0.00  0.00     0.231 HD
ATOM     23  H   SGN d   5      16.305  12.791  -9.456  0.00  0.00     0.210 HD
ATOM     24  H   SGN d   5      15.579  11.705 -12.509  0.00  0.00     0.231 HD
ATOM     25  C1  IDS d   4      13.084  13.193  -6.110  0.00  0.00     0.294 C 
ATOM     26  O62 IDS d   4      16.916  15.607  -6.774  0.00  0.00    -0.646 OA
ATOM     27  C6  IDS d   4      15.663  15.587  -6.633  0.00  0.00     0.206 C 
ATOM     28  C5  IDS d   4      14.994  14.372  -6.067  0.00  0.00     0.257 C 
ATOM     29  O2  IDS d   4      12.020  13.868  -4.116  0.00  0.00    -0.244 OA
ATOM     30  O1S IDS d   4       9.804  14.522  -3.732  0.00  0.00    -0.572 OA
ATOM     31  O3  IDS d   4      15.040  12.095  -4.006  0.00  0.00    -0.390 OA
ATOM     32  C4  IDS d   4      15.153  14.352  -4.578  0.00  0.00     0.195 C 
ATOM     33  O61 IDS d   4      14.970  16.588  -6.966  0.00  0.00    -0.646 OA
ATOM     34  O4  IDS d   4      14.833  15.594  -4.049  0.00  0.00    -0.348 OA
ATOM     35  O2S IDS d   4      10.240  12.519  -4.963  0.00  0.00    -0.572 OA
ATOM     36  O5  IDS d   4      13.660  14.404  -6.394  0.00  0.00    -0.340 OA
ATOM     37  S   IDS d   4      10.670  13.343  -3.858  0.00  0.00     0.252 S 
ATOM     38  C3  IDS d   4      14.320  13.269  -3.957  0.00  0.00     0.185 C 
ATOM     39  O3S IDS d   4      10.654  12.572  -2.637  0.00  0.00    -0.572 OA
ATOM     40  C2  IDS d   4      12.989  13.025  -4.627  0.00  0.00     0.231 C 
ATOM     41  H   IDS d   4      15.902  12.226  -3.581  0.00  0.00     0.210 HD
ATOM     42  O6A BDP d   2      19.608  23.003  -1.528  0.00  0.00    -0.646 OA
ATOM     43  O2  BDP d   2      19.993  18.847  -5.888  0.00  0.00    -0.388 OA
ATOM     44  C3  BDP d   2      21.210  20.420  -4.674  0.00  0.00     0.183 C 
ATOM     45  O4  BDP d   2      22.465  21.504  -3.011  0.00  0.00    -0.348 OA
ATOM     46  C4  BDP d   2      21.188  21.384  -3.534  0.00  0.00     0.195 C 
ATOM     47  O5  BDP d   2      19.051  20.538  -2.929  0.00  0.00    -0.340 OA
ATOM     48  C2  BDP d   2      19.854  19.919  -5.026  0.00  0.00     0.204 C 
ATOM     49  O6B BDP d   2      20.607  21.607  -0.182  0.00  0.00    -0.646 OA
ATOM     50  C1  BDP d   2      19.106  19.479  -3.810  0.00  0.00     0.292 C 
ATOM     51  C5  BDP d   2      20.301  20.884  -2.431  0.00  0.00     0.257 C 
ATOM     52  O3  BDP d   2      21.730  21.041  -5.789  0.00  0.00    -0.390 OA
ATOM     53  C6  BDP d   2      20.164  21.890  -1.325  0.00  0.00     0.206 C 
ATOM     54  H   BDP d   2      20.478  19.129  -6.679  0.00  0.00     0.210 HD
ATOM     55  H   BDP d   2      21.162  21.786  -6.039  0.00  0.00     0.210 HD
ATOM     56  C6  NGY d   1      23.617  25.236  -1.429  0.00  0.00     0.227 C 
ATOM     57  O5  NGY d   1      23.216  23.734  -3.207  0.00  0.00    -0.349 OA
ATOM     58  O8  NGY d   1      22.727  27.617  -2.987  0.00  0.00    -0.572 OA
ATOM     59  C3  NGY d   1      25.280  22.036  -2.452  0.00  0.00     0.177 C 
ATOM     60  O9  NGY d   1      23.775  28.012  -0.871  0.00  0.00    -0.572 OA
ATOM     61  C4  NGY d   1      25.167  23.423  -1.923  0.00  0.00     0.180 C 
ATOM     62  O3  NGY d   1      26.607  21.672  -2.521  0.00  0.00    -0.391 OA
ATOM     63  CH3 NGY d   1      25.516  18.723  -5.700  0.00  0.00     0.117 C 
ATOM     64  O4  NGY d   1      25.650  23.470  -0.632  0.00  0.00    -0.390 OA
ATOM     65  S   NGY d   1      23.981  27.537  -2.221  0.00  0.00     0.251 S 
ATOM     66  O7  NGY d   1      25.022  28.305  -2.857  0.00  0.00    -0.572 OA
ATOM     67  C1  NGY d   1      23.258  22.461  -3.745  0.00  0.00     0.286 C 
ATOM     68  O6  NGY d   1      24.342  26.111  -2.215  0.00  0.00    -0.254 OA
ATOM     69  N   NGY d   1      24.670  20.610  -4.256  0.00  0.00    -0.349 N 
ATOM     70  C   NGY d   1      25.564  20.151  -5.274  0.00  0.00     0.214 C 
ATOM     71  O   NGY d   1      26.365  20.916  -5.795  0.00  0.00    -0.274 OA
ATOM     72  C2  NGY d   1      24.669  21.971  -3.809  0.00  0.00     0.170 C 
ATOM     73  C5  NGY d   1      23.735  23.834  -1.930  0.00  0.00     0.181 C 
ATOM     74  H   NGY d   1      27.078  22.279  -3.112  0.00  0.00     0.210 HD
ATOM     75  H   NGY d   1      25.134  22.869  -0.072  0.00  0.00     0.210 HD
ATOM     76  H   NGY d   1      24.038  19.973  -3.851  0.00  0.00     0.163 HD
ATOM     77  N   SGN d   3      13.818  17.376  -2.049  0.00  0.00    -0.210 NA
ATOM     78  O4S SGN d   3      21.764  17.050  -3.257  0.00  0.00    -0.572 OA
ATOM     79  C4  SGN d   3      17.343  18.035  -3.248  0.00  0.00     0.186 C 
ATOM     80  O6  SGN d   3      19.581  16.140  -2.705  0.00  0.00    -0.254 OA
ATOM     81  C3  SGN d   3      15.872  18.307  -2.959  0.00  0.00     0.173 C 
ATOM     82  O4  SGN d   3      17.803  18.990  -4.184  0.00  0.00    -0.348 OA
ATOM     83  C2  SGN d   3      15.245  17.158  -2.177  0.00  0.00     0.157 C 
ATOM     84  O3S SGN d   3      13.692  17.185   0.404  0.00  0.00    -0.296 OA
ATOM     85  O5  SGN d   3      16.944  15.659  -2.942  0.00  0.00    -0.349 OA
ATOM     86  O5S SGN d   3      21.420  14.663  -3.246  0.00  0.00    -0.572 OA
ATOM     87  O6S SGN d   3      21.422  15.900  -1.150  0.00  0.00    -0.572 OA
ATOM     88  C1  SGN d   3      15.546  15.795  -2.806  0.00  0.00     0.282 C 
ATOM     89  O2S SGN d   3      11.654  17.170  -0.924  0.00  0.00    -0.296 OA
ATOM     90  S1  SGN d   3      13.032  16.724  -0.825  0.00  0.00     0.156 S 
ATOM     91  O1S SGN d   3      13.118  15.272  -0.997  0.00  0.00    -0.296 OA
ATOM     92  C6  SGN d   3      18.992  16.261  -3.980  0.00  0.00     0.227 C 
ATOM     93  S2  SGN d   3      21.121  15.928  -2.579  0.00  0.00     0.251 S 
ATOM     94  O3  SGN d   3      15.715  19.520  -2.243  0.00  0.00    -0.391 OA
ATOM     95  C5  SGN d   3      17.522  16.620  -3.804  0.00  0.00     0.181 C 
ATOM     96  H   SGN d   3      13.386  17.021  -2.902  0.00  0.00     0.140 HD
ATOM     97  H   SGN d   3      13.609  18.149   0.474  0.00  0.00     0.231 HD
ATOM     98  H   SGN d   3      11.617  18.132  -0.808  0.00  0.00     0.231 HD
ATOM     99  H   SGN d   3      14.044  14.992  -0.928  0.00  0.00     0.231 HD
ATOM    100  H   SGN d   3      16.168  19.452  -1.388  0.00  0.00     0.210 HD
ATOM    101  C6  BDP d   6      13.173   7.668  -9.726  0.00  0.00     0.204 C 
ATOM    102  O6A BDP d   6      13.959   8.735  -9.333  0.00  0.00    -0.364 OA
ENDROOT
TORSDOF 40
