REMARK  0 active torsions:
REMARK  status: ('A' for Active; 'I' for Inactive)
REMARK       I    between atoms: O2_1  and  C2_16 
REMARK       I    between atoms: O2_1  and  S_38 
REMARK       I    between atoms: S1_4  and  N_25 
REMARK       I    between atoms: S1_4  and  O1S_14 
REMARK       I    between atoms: S1_4  and  O2S_30 
REMARK       I    between atoms: S1_4  and  O3S_27 
REMARK       I    between atoms: C4_6  and  O4_18 
REMARK       I    between atoms: C4_8  and  O4_44 
REMARK       I    between atoms: C2_9  and  N_51 
REMARK       I    between atoms: C2_10  and  N_25 
REMARK       I    between atoms: O3_11  and  C3_49 
REMARK       I    between atoms: O1_13  and  C1_36 
REMARK       I    between atoms: C5_15  and  C6_21 
REMARK       I    between atoms: O3_17  and  C3_50 
REMARK       I    between atoms: C6_21  and  O6_34 
REMARK       I    between atoms: O3_22  and  C3_43 
REMARK       I    between atoms: O1_23  and  C1_39 
REMARK       I    between atoms: O1_23  and  C4_24 
REMARK       I    between atoms: C5_26  and  C6_31 
REMARK       I    between atoms: O1S_28  and  S1_46 
REMARK       I    between atoms: O3S_29  and  S1_46 
REMARK       I    between atoms: C6_31  and  O6_55 
REMARK       I    between atoms: O6_34  and  S2_41 
REMARK       I    between atoms: O2S_35  and  S1_46 
REMARK       I    between atoms: C6_37  and  C5_42 
REMARK       I    between atoms: O4_44  and  C1_54 
REMARK       I    between atoms: S1_46  and  N_51 
REMARK       I    between atoms: S2_53  and  O6_55 
ROOT
ATOM      1  O2  IDS d 502      30.547  19.970 144.959  0.00  0.00    -0.244 OA
ATOM      2  O61 IDS d 502      33.187  25.550 147.106  0.00  0.00    -0.646 OA
ATOM      3  O62 IDS d 502      32.052  25.435 145.232  0.00  0.00    -0.646 OA
ATOM      4  C2  IDS d 502      31.121  21.076 145.648  0.00  0.00     0.231 C 
ATOM      5  O3S IDS d 502      31.415  17.536 144.344  0.00  0.00    -0.572 OA
ATOM      6  O3  IDS d 502      28.927  21.658 146.388  0.00  0.00    -0.390 OA
ATOM      7  C4  IDS d 502      30.688  23.251 146.683  0.00  0.00     0.195 C 
ATOM      8  O5  IDS d 502      32.812  22.822 145.378  0.00  0.00    -0.340 OA
ATOM      9  C6  IDS d 502      32.476  24.923 146.295  0.00  0.00     0.206 C 
ATOM     10  S   IDS d 502      30.963  18.340 145.500  0.00  0.00     0.252 S 
ATOM     11  C5  IDS d 502      32.210  23.443 146.531  0.00  0.00     0.257 C 
ATOM     12  C3  IDS d 502      30.099  22.175 145.793  0.00  0.00     0.185 C 
ATOM     13  O2S IDS d 502      32.056  18.415 146.498  0.00  0.00    -0.572 OA
ATOM     14  O1S IDS d 502      29.771  17.708 146.111  0.00  0.00    -0.572 OA
ATOM     15  C1  IDS d 502      32.281  21.606 144.837  0.00  0.00     0.294 C 
ATOM     16  H   IDS d 502      28.551  20.970 145.817  0.00  0.00     0.210 HD
ATOM     17  O5  SGN d 501      30.175  25.848 148.433  0.00  0.00    -0.349 OA
ATOM     18  C4  SGN d 501      28.992  27.765 147.588  0.00  0.00     0.179 C 
ATOM     19  C2  SGN d 501      27.959  25.494 147.494  0.00  0.00     0.157 C 
ATOM     20  O3  SGN d 501      26.763  27.447 146.738  0.00  0.00    -0.391 OA
ATOM     21  O4  SGN d 501      29.146  29.007 146.899  0.00  0.00    -0.390 OA
ATOM     22  O1  SGN d 501      29.956  24.468 146.536  0.00  0.00    -0.348 OA
ATOM     23  C5  SGN d 501      30.345  27.078 147.721  0.00  0.00     0.181 C 
ATOM     24  O1S SGN d 501      25.296  22.961 147.652  0.00  0.00    -0.296 OA
ATOM     25  O3S SGN d 501      25.011  25.320 148.083  0.00  0.00    -0.296 OA
ATOM     26  C6  SGN d 501      31.367  27.975 148.411  0.00  0.00     0.227 C 
ATOM     27  O2S SGN d 501      24.638  24.451 145.860  0.00  0.00    -0.296 OA
ATOM     28  C1  SGN d 501      29.346  24.902 147.750  0.00  0.00     0.282 C 
ATOM     29  O6S SGN d 501      33.040  29.279 151.017  0.00  0.00    -0.572 OA
ATOM     30  O5S SGN d 501      30.644  29.075 151.281  0.00  0.00    -0.572 OA
ATOM     31  S1  SGN d 501      25.458  24.320 147.087  0.00  0.00     0.156 S 
ATOM     32  O4S SGN d 501      32.114  27.424 152.263  0.00  0.00    -0.572 OA
ATOM     33  C3  SGN d 501      28.046  26.857 146.812  0.00  0.00     0.172 C 
ATOM     34  N   SGN d 501      27.163  24.586 146.688  0.00  0.00    -0.210 NA
ATOM     35  S2  SGN d 501      31.909  28.325 151.105  0.00  0.00     0.251 S 
ATOM     36  O6  SGN d 501      31.823  27.367 149.618  0.00  0.00    -0.254 OA
ATOM     37  H   SGN d 501      26.829  28.312 146.304  0.00  0.00     0.210 HD
ATOM     38  H   SGN d 501      29.512  28.843 146.016  0.00  0.00     0.210 HD
ATOM     39  H   SGN d 501      24.363  22.811 147.872  0.00  0.00     0.231 HD
ATOM     40  H   SGN d 501      24.077  25.168 148.297  0.00  0.00     0.231 HD
ATOM     41  H   SGN d 501      23.704  24.305 146.078  0.00  0.00     0.231 HD
ATOM     42  H   SGN d 501      27.621  23.676 146.729  0.00  0.00     0.140 HD
ATOM     43  S1  SGN d 503      38.804  21.804 142.636  0.00  0.00     0.156 S 
ATOM     44  O5  SGN d 503      34.547  19.404 141.532  0.00  0.00    -0.350 OA
ATOM     45  C4  SGN d 503      34.044  20.645 143.539  0.00  0.00     0.186 C 
ATOM     46  C2  SGN d 503      36.347  20.530 142.644  0.00  0.00     0.157 C 
ATOM     47  O3  SGN d 503      35.832  21.800 144.618  0.00  0.00    -0.391 OA
ATOM     48  O4S SGN d 503      29.763  22.075 141.914  0.00  0.00    -0.572 OA
ATOM     49  O1  SGN d 503      36.215  18.120 142.556  0.00  0.00    -0.369 OA
ATOM     50  O1S SGN d 503      39.018  21.871 141.175  0.00  0.00    -0.296 OA
ATOM     51  C5  SGN d 503      33.683  19.450 142.669  0.00  0.00     0.181 C 
ATOM     52  O5S SGN d 503      30.233  20.573 140.096  0.00  0.00    -0.572 OA
ATOM     53  C6  SGN d 503      32.275  19.674 142.150  0.00  0.00     0.227 C 
ATOM     54  N   SGN d 503      37.747  20.438 142.996  0.00  0.00    -0.210 NA
ATOM     55  O3S SGN d 503      38.161  23.054 143.100  0.00  0.00    -0.296 OA
ATOM     56  O2S SGN d 503      40.102  21.621 143.327  0.00  0.00    -0.296 OA
ATOM     57  O6S SGN d 503      31.194  22.794 140.091  0.00  0.00    -0.572 OA
ATOM     58  O6  SGN d 503      32.193  21.049 141.793  0.00  0.00    -0.254 OA
ATOM     59  C1  SGN d 503      35.938  19.313 141.829  0.00  0.00     0.278 C 
ATOM     60  S2  SGN d 503      30.784  21.652 140.933  0.00  0.00     0.251 S 
ATOM     61  O4  SGN d 503      33.279  20.595 144.741  0.00  0.00    -0.348 OA
ATOM     62  C3  SGN d 503      35.513  20.623 143.908  0.00  0.00     0.173 C 
ATOM     63  H   SGN d 503      35.293  21.848 145.423  0.00  0.00     0.210 HD
ATOM     64  H   SGN d 503      35.951  17.351 142.028  0.00  0.00     0.212 HD
ATOM     65  H   SGN d 503      39.439  21.052 140.872  0.00  0.00     0.231 HD
ATOM     66  H   SGN d 503      37.794  20.280 144.003  0.00  0.00     0.140 HD
ATOM     67  H   SGN d 503      37.312  23.169 142.645  0.00  0.00     0.231 HD
ATOM     68  H   SGN d 503      40.519  20.801 143.020  0.00  0.00     0.231 HD
ENDROOT
TORSDOF 28
