REMARK  0 active torsions:
REMARK  status: ('A' for Active; 'I' for Inactive)
REMARK       I    between atoms: C4_5  and  O4_20 
REMARK       I    between atoms: C6_6  and  C5_15 
REMARK       I    between atoms: C6_6  and  O6_25 
REMARK       I    between atoms: S1_7  and  N_21 
REMARK       I    between atoms: S1_7  and  O1S_34 
REMARK       I    between atoms: S1_7  and  O2S_27 
REMARK       I    between atoms: S1_7  and  O3S_19 
REMARK       I    between atoms: C5_8  and  C6_35 
REMARK       I    between atoms: S2_9  and  O6_25 
REMARK       I    between atoms: C1_10  and  O4_20 
REMARK       I    between atoms: C3_14  and  O3_18 
REMARK       I    between atoms: C2_16  and  N_21 
REMARK       I    between atoms: C1_17  and  O1_26 
REMARK       I    between atoms: C2_22  and  O2_29 
REMARK       I    between atoms: S_23  and  O2_29 
REMARK       I    between atoms: C3_30  and  O3_31 
ROOT
ATOM      1  O3S IXD d 379      21.091  21.510  20.224  0.00  0.00    -0.572 OA
ATOM      2  O2S IXD d 379      23.378  20.825  19.809  0.00  0.00    -0.572 OA
ATOM      3  O5  IXD d 379      21.099  18.457  22.871  0.00  0.00    -0.343 OA
ATOM      4  O62 IXD d 379      20.399  16.734  25.103  0.00  0.00    -0.646 OA
ATOM      5  C5  IXD d 379      21.698  18.376  24.193  0.00  0.00     0.228 C 
ATOM      6  C1  IXD d 379      20.466  19.697  22.532  0.00  0.00     0.294 C 
ATOM      7  O1S IXD d 379      22.898  22.961  20.827  0.00  0.00    -0.572 OA
ATOM      8  O61 IXD d 379      22.502  16.902  25.793  0.00  0.00    -0.646 OA
ATOM      9  C2  IXD d 379      21.360  20.864  22.943  0.00  0.00     0.228 C 
ATOM     10  S   IXD d 379      22.480  21.542  20.747  0.00  0.00     0.252 S 
ATOM     11  C4  IXD d 379      22.389  19.420  24.629  0.00  0.00     0.077 C 
ATOM     12  O2  IXD d 379      22.531  20.870  22.132  0.00  0.00    -0.244 OA
ATOM     13  C3  IXD d 379      21.699  20.731  24.426  0.00  0.00     0.156 C 
ATOM     14  O3  IXD d 379      22.532  21.756  24.928  0.00  0.00    -0.393 OA
ATOM     15  C6  IXD d 379      21.526  17.255  25.078  0.00  0.00     0.203 C 
ATOM     16  H   IXD d 379      23.387  21.731  24.470  0.00  0.00     0.210 HD
ATOM     17  C4  SGN d 378      18.618  20.825  23.549  0.00  0.00     0.186 C 
ATOM     18  C6  SGN d 378      17.487  18.670  23.797  0.00  0.00     0.227 C 
ATOM     19  S1  SGN d 378      16.421  25.082  21.949  0.00  0.00     0.156 S 
ATOM     20  S2  SGN d 378      15.403  18.083  25.074  0.00  0.00     0.251 S 
ATOM     21  O4S SGN d 378      14.977  18.259  26.448  0.00  0.00    -0.572 OA
ATOM     22  C3  SGN d 378      18.691  22.123  22.757  0.00  0.00     0.173 C 
ATOM     23  C5  SGN d 378      17.661  19.855  22.875  0.00  0.00     0.181 C 
ATOM     24  C2  SGN d 378      17.288  22.651  22.514  0.00  0.00     0.157 C 
ATOM     25  C1  SGN d 378      16.406  21.586  21.876  0.00  0.00     0.278 C 
ATOM     26  O3  SGN d 378      19.401  23.108  23.468  0.00  0.00    -0.391 OA
ATOM     27  O3S SGN d 378      16.807  25.647  23.237  0.00  0.00    -0.296 OA
ATOM     28  O4  SGN d 378      19.881  20.195  23.631  0.00  0.00    -0.348 OA
ATOM     29  N   SGN d 378      17.362  23.821  21.663  0.00  0.00    -0.210 NA
ATOM     30  O6  SGN d 378      16.558  19.066  24.777  0.00  0.00    -0.254 OA
ATOM     31  O1  SGN d 378      16.897  21.278  20.594  0.00  0.00    -0.369 OA
ATOM     32  O2S SGN d 378      15.056  24.560  21.996  0.00  0.00    -0.296 OA
ATOM     33  O6S SGN d 378      15.921  16.748  24.804  0.00  0.00    -0.572 OA
ATOM     34  O5S SGN d 378      14.337  18.436  24.143  0.00  0.00    -0.572 OA
ATOM     35  O5  SGN d 378      16.384  20.423  22.673  0.00  0.00    -0.350 OA
ATOM     36  O1S SGN d 378      16.665  26.026  20.858  0.00  0.00    -0.296 OA
ATOM     37  H   SGN d 378      18.946  23.294  24.304  0.00  0.00     0.210 HD
ATOM     38  H   SGN d 378      17.714  25.986  23.182  0.00  0.00     0.231 HD
ATOM     39  H   SGN d 378      18.324  24.156  21.707  0.00  0.00     0.140 HD
ATOM     40  H   SGN d 378      17.802  20.937  20.668  0.00  0.00     0.212 HD
ATOM     41  H   SGN d 378      14.821  24.190  21.131  0.00  0.00     0.231 HD
ATOM     42  H   SGN d 378      16.399  25.623  20.017  0.00  0.00     0.231 HD
ENDROOT
TORSDOF 16
