REMARK  0 active torsions:
REMARK  status: ('A' for Active; 'I' for Inactive)
REMARK       I    between atoms: O15_1  and  C10_4 
REMARK       I    between atoms: S20_2  and  N14_26 
REMARK       I    between atoms: S20_2  and  O28_25 
REMARK       I    between atoms: S20_2  and  O29_35 
REMARK       I    between atoms: S20_2  and  O30_33 
REMARK       I    between atoms: C7_3  and  O3_29 
REMARK       I    between atoms: C6_5  and  C2_23 
REMARK       I    between atoms: C6_5  and  O11_28 
REMARK       I    between atoms: S16_6  and  O11_28 
REMARK       I    between atoms: C19_8  and  C27_10 
REMARK       I    between atoms: C8_11  and  N14_26 
REMARK       I    between atoms: O9_14  and  C4_30 
REMARK       I    between atoms: S26_18  and  O18_24 
REMARK       I    between atoms: O25_19  and  C17_21 
REMARK       I    between atoms: C12_20  and  O18_24 
REMARK       I    between atoms: O3_29  and  C1_31 
ROOT
ATOM      1  O15 H1S d  68     -18.765   2.611  10.244  0.00  0.00    -0.369 OA
ATOM      2  S20 H1S d  68     -16.482   1.780   7.836  0.00  0.00     0.156 S 
ATOM      3  C7  H1S d  68     -21.247  -3.115   8.881  0.00  0.00     0.300 C 
ATOM      4  C10 H1S d  68     -19.473   1.555   9.562  0.00  0.00     0.278 C 
ATOM      5  C6  H1S d  68     -22.809   0.742   8.435  0.00  0.00     0.227 C 
ATOM      6  S16 H1S d  68     -24.918   1.051   6.967  0.00  0.00     0.251 S 
ATOM      7  O13 H1S d  68     -20.562  -3.475  10.128  0.00  0.00    -0.311 OA
ATOM      8  C19 H1S d  68     -20.919  -4.739  10.545  0.00  0.00     0.147 C 
ATOM      9  O34 H1S d  68     -21.331  -6.145  12.523  0.00  0.00    -0.642 OA
ATOM     10  C27 H1S d  68     -21.016  -5.011  12.088  0.00  0.00     0.233 C 
ATOM     11  C8  H1S d  68     -18.424   0.542   9.081  0.00  0.00     0.157 C 
ATOM     12  O22 H1S d  68     -25.619   0.415   5.793  0.00  0.00    -0.572 OA
ATOM     13  O23 H1S d  68     -24.722   2.514   6.624  0.00  0.00    -0.572 OA
ATOM     14  O9  H1S d  68     -18.844  -1.276  10.455  0.00  0.00    -0.391 OA
ATOM     15  O21 H1S d  68     -25.802   0.937   8.200  0.00  0.00    -0.572 OA
ATOM     16  C24 H1S d  68     -21.177  -5.742   9.577  0.00  0.00     0.051 C 
ATOM     17  O35 H1S d  68     -20.768  -4.057  12.838  0.00  0.00    -0.642 OA
ATOM     18  S26 H1S d  68     -19.769  -2.288   5.963  0.00  0.00     0.252 S 
ATOM     19  O25 H1S d  68     -20.269  -6.518   7.408  0.00  0.00    -0.389 OA
ATOM     20  C12 H1S d  68     -20.534  -4.003   7.811  0.00  0.00     0.233 C 
ATOM     21  C17 H1S d  68     -21.071  -5.468   8.036  0.00  0.00     0.179 C 
ATOM     22  O5  H1S d  68     -20.476   1.845   8.492  0.00  0.00    -0.350 OA
ATOM     23  C2  H1S d  68     -21.257   0.615   8.236  0.00  0.00     0.181 C 
ATOM     24  O18 H1S d  68     -20.618  -3.464   6.420  0.00  0.00    -0.244 OA
ATOM     25  O28 H1S d  68     -16.983   3.200   7.906  0.00  0.00    -0.296 OA
ATOM     26  N14 H1S d  68     -17.863   0.805   7.713  0.00  0.00    -0.210 NA
ATOM     27  O31 H1S d  68     -18.474  -2.189   6.750  0.00  0.00    -0.572 OA
ATOM     28  O11 H1S d  68     -23.598   0.400   7.221  0.00  0.00    -0.254 OA
ATOM     29  O3  H1S d  68     -21.448  -1.708   8.481  0.00  0.00    -0.348 OA
ATOM     30  C4  H1S d  68     -19.164  -0.767   9.167  0.00  0.00     0.173 C 
ATOM     31  C1  H1S d  68     -20.720  -0.593   9.083  0.00  0.00     0.186 C 
ATOM     32  O33 H1S d  68     -20.546  -1.003   6.112  0.00  0.00    -0.572 OA
ATOM     33  O30 H1S d  68     -15.792   1.366   9.113  0.00  0.00    -0.296 OA
ATOM     34  O32 H1S d  68     -19.483  -2.377   4.473  0.00  0.00    -0.572 OA
ATOM     35  O29 H1S d  68     -15.498   1.672   6.704  0.00  0.00    -0.296 OA
ATOM     36  H   H1S d  68     -19.399   3.272  10.563  0.00  0.00     0.212 HD
ATOM     37  H   H1S d  68     -17.884  -1.391  10.528  0.00  0.00     0.210 HD
ATOM     38  H   H1S d  68     -20.666  -7.383   7.594  0.00  0.00     0.210 HD
ATOM     39  H   H1S d  68     -17.419   3.430   7.071  0.00  0.00     0.231 HD
ATOM     40  H   H1S d  68     -17.614  -0.081   7.273  0.00  0.00     0.140 HD
ATOM     41  H   H1S d  68     -16.416   1.431   9.853  0.00  0.00     0.231 HD
ATOM     42  H   H1S d  68     -15.928   1.935   5.875  0.00  0.00     0.231 HD
ENDROOT
TORSDOF 16
