REMARK  0 active torsions:
REMARK  status: ('A' for Active; 'I' for Inactive)
REMARK       I    between atoms: C3_4  and  O3_43 
REMARK       I    between atoms: C6_5  and  C5_22 
REMARK       I    between atoms: C4_7  and  O4_56 
REMARK       I    between atoms: O3_9  and  C3_30 
REMARK       I    between atoms: C2_10  and  O2_21 
REMARK       I    between atoms: C5_14  and  C6_17 
REMARK       I    between atoms: O3S_15  and  S1_45 
REMARK       I    between atoms: C6_17  and  O6_53 
REMARK       I    between atoms: C2_18  and  N_35 
REMARK       I    between atoms: S1_19  and  N_50 
REMARK       I    between atoms: S1_19  and  O1S_42 
REMARK       I    between atoms: S1_19  and  O2S_34 
REMARK       I    between atoms: S1_19  and  O3S_58 
REMARK       I    between atoms: O2_21  and  S_26 
REMARK       I    between atoms: C3_23  and  O3_48 
REMARK       I    between atoms: C1_25  and  O1_65 
REMARK       I    between atoms: O1_28  and  C1_29 
REMARK       I    between atoms: O2_31  and  C2_62 
REMARK       I    between atoms: O2_31  and  S_32 
REMARK       I    between atoms: C5_33  and  C6_60 
REMARK       I    between atoms: N_35  and  S1_45 
REMARK       I    between atoms: S2_36  and  O6_70 
REMARK       I    between atoms: O2S_37  and  S1_45 
REMARK       I    between atoms: O3_38  and  C3_52 
REMARK       I    between atoms: C4_39  and  O1_65 
REMARK       I    between atoms: O1S_41  and  S1_45 
REMARK       I    between atoms: C2_44  and  N_50 
REMARK       I    between atoms: S2_46  and  O6_53 
REMARK       I    between atoms: C1_49  and  O4_66 
REMARK       I    between atoms: C1_51  and  O4_56 
REMARK       I    between atoms: C6_54  and  C5_63 
REMARK       I    between atoms: C6_60  and  O6_70 
REMARK       I    between atoms: O4_66  and  C4_69 
ROOT
ATOM      1  O62 IDS d 803     -30.201  80.311  18.451  0.00  0.00    -0.646 OA
ATOM      2  C2  IDS d 803     -27.927  84.183  19.690  0.00  0.00     0.231 C 
ATOM      3  O61 IDS d 803     -29.164  80.202  16.521  0.00  0.00    -0.646 OA
ATOM      4  O3S IDS d 803     -28.836  85.319  22.823  0.00  0.00    -0.572 OA
ATOM      5  O5  IDS d 803     -28.303  81.791  19.522  0.00  0.00    -0.340 OA
ATOM      6  O2  IDS d 803     -29.169  84.475  20.327  0.00  0.00    -0.244 OA
ATOM      7  C3  IDS d 803     -28.052  84.288  18.170  0.00  0.00     0.185 C 
ATOM      8  S   IDS d 803     -29.253  85.802  21.492  0.00  0.00     0.252 S 
ATOM      9  C4  IDS d 803     -28.967  83.179  17.652  0.00  0.00     0.195 C 
ATOM     10  O3  IDS d 803     -26.784  84.219  17.553  0.00  0.00    -0.390 OA
ATOM     11  C1  IDS d 803     -27.439  82.790  20.087  0.00  0.00     0.294 C 
ATOM     12  C6  IDS d 803     -29.325  80.708  17.653  0.00  0.00     0.206 C 
ATOM     13  C5  IDS d 803     -28.395  81.829  18.089  0.00  0.00     0.257 C 
ATOM     14  O2S IDS d 803     -28.353  86.890  21.065  0.00  0.00    -0.572 OA
ATOM     15  O1S IDS d 803     -30.637  86.306  21.564  0.00  0.00    -0.572 OA
ATOM     16  H   IDS d 803     -26.370  83.366  17.759  0.00  0.00     0.210 HD
ATOM     17  O2S UAP d 801     -37.896  77.333  19.652  0.00  0.00    -0.572 OA
ATOM     18  C6  UAP d 801     -37.602  84.021  19.484  0.00  0.00     0.233 C 
ATOM     19  O1S UAP d 801     -39.010  77.700  17.550  0.00  0.00    -0.572 OA
ATOM     20  C5  UAP d 801     -37.101  82.788  19.391  0.00  0.00     0.147 C 
ATOM     21  O62 UAP d 801     -37.616  84.755  18.469  0.00  0.00    -0.642 OA
ATOM     22  O2  UAP d 801     -37.496  79.676  18.465  0.00  0.00    -0.244 OA
ATOM     23  S   UAP d 801     -37.770  77.936  18.312  0.00  0.00     0.252 S 
ATOM     24  O3  UAP d 801     -35.457  80.553  21.298  0.00  0.00    -0.389 OA
ATOM     25  C4  UAP d 801     -37.106  81.999  20.486  0.00  0.00     0.051 C 
ATOM     26  O5  UAP d 801     -36.622  82.368  18.201  0.00  0.00    -0.311 OA
ATOM     27  C1  UAP d 801     -35.707  81.271  18.227  0.00  0.00     0.300 C 
ATOM     28  C3  UAP d 801     -36.607  80.640  20.486  0.00  0.00     0.179 C 
ATOM     29  O3S UAP d 801     -36.632  77.321  17.604  0.00  0.00    -0.572 OA
ATOM     30  O61 UAP d 801     -38.062  84.419  20.580  0.00  0.00    -0.642 OA
ATOM     31  C2  UAP d 801     -36.298  80.154  19.074  0.00  0.00     0.233 C 
ATOM     32  H   UAP d 801     -35.668  80.865  22.192  0.00  0.00     0.210 HD
ATOM     33  O6S SGN d 804     -25.677  83.596  25.546  0.00  0.00    -0.572 OA
ATOM     34  O5  SGN d 804     -23.401  81.048  21.706  0.00  0.00    -0.350 OA
ATOM     35  O3  SGN d 804     -26.396  79.842  19.123  0.00  0.00    -0.391 OA
ATOM     36  C5  SGN d 804     -24.076  82.096  20.990  0.00  0.00     0.181 C 
ATOM     37  O3S SGN d 804     -23.341  76.798  21.623  0.00  0.00    -0.296 OA
ATOM     38  C6  SGN d 804     -24.240  83.328  21.875  0.00  0.00     0.227 C 
ATOM     39  C2  SGN d 804     -24.424  79.303  20.375  0.00  0.00     0.157 C 
ATOM     40  O5S SGN d 804     -26.333  85.113  23.793  0.00  0.00    -0.572 OA
ATOM     41  O1  SGN d 804     -22.230  80.195  19.837  0.00  0.00    -0.369 OA
ATOM     42  C1  SGN d 804     -23.116  79.884  20.914  0.00  0.00     0.278 C 
ATOM     43  C3  SGN d 804     -25.170  80.367  19.581  0.00  0.00     0.173 C 
ATOM     44  N   SGN d 804     -24.146  78.178  19.503  0.00  0.00    -0.210 NA
ATOM     45  O2S SGN d 804     -24.419  75.559  19.859  0.00  0.00    -0.296 OA
ATOM     46  O1S SGN d 804     -22.183  76.396  19.547  0.00  0.00    -0.296 OA
ATOM     47  S1  SGN d 804     -23.496  76.670  20.160  0.00  0.00     0.156 S 
ATOM     48  S2  SGN d 804     -25.257  84.230  24.282  0.00  0.00     0.251 S 
ATOM     49  O6  SGN d 804     -24.927  82.979  23.075  0.00  0.00    -0.254 OA
ATOM     50  O4S SGN d 804     -24.038  85.027  24.512  0.00  0.00    -0.572 OA
ATOM     51  O4  SGN d 804     -26.072  82.596  19.719  0.00  0.00    -0.348 OA
ATOM     52  C4  SGN d 804     -25.419  81.576  20.477  0.00  0.00     0.186 C 
ATOM     53  H   SGN d 804     -26.227  79.074  18.555  0.00  0.00     0.210 HD
ATOM     54  H   SGN d 804     -24.205  76.978  22.025  0.00  0.00     0.231 HD
ATOM     55  H   SGN d 804     -21.405  80.562  20.192  0.00  0.00     0.212 HD
ATOM     56  H   SGN d 804     -23.476  78.506  18.808  0.00  0.00     0.140 HD
ATOM     57  H   SGN d 804     -25.283  75.738  20.262  0.00  0.00     0.231 HD
ATOM     58  H   SGN d 804     -21.575  77.126  19.744  0.00  0.00     0.231 HD
ATOM     59  C3  SGN d 802     -33.110  83.647  18.908  0.00  0.00     0.173 C 
ATOM     60  C4  SGN d 802     -33.721  82.609  17.977  0.00  0.00     0.186 C 
ATOM     61  O5  SGN d 802     -31.851  82.905  16.468  0.00  0.00    -0.349 OA
ATOM     62  S1  SGN d 802     -31.542  87.296  18.271  0.00  0.00     0.156 S 
ATOM     63  O6S SGN d 802     -33.748  80.190  13.067  0.00  0.00    -0.572 OA
ATOM     64  C1  SGN d 802     -31.232  83.910  17.285  0.00  0.00     0.282 C 
ATOM     65  C5  SGN d 802     -32.605  81.916  17.189  0.00  0.00     0.181 C 
ATOM     66  O2S SGN d 802     -32.746  87.671  17.504  0.00  0.00    -0.296 OA
ATOM     67  S2  SGN d 802     -34.747  80.917  13.874  0.00  0.00     0.251 S 
ATOM     68  O1S SGN d 802     -31.352  88.241  19.386  0.00  0.00    -0.296 OA
ATOM     69  O3  SGN d 802     -34.126  84.315  19.622  0.00  0.00    -0.391 OA
ATOM     70  C2  SGN d 802     -32.320  84.642  18.068  0.00  0.00     0.157 C 
ATOM     71  N   SGN d 802     -31.736  85.661  18.914  0.00  0.00    -0.210 NA
ATOM     72  O4  SGN d 802     -34.435  81.649  18.758  0.00  0.00    -0.348 OA
ATOM     73  O3S SGN d 802     -30.364  87.334  17.385  0.00  0.00    -0.296 OA
ATOM     74  C6  SGN d 802     -33.203  80.951  16.176  0.00  0.00     0.227 C 
ATOM     75  O5S SGN d 802     -35.410  81.936  13.039  0.00  0.00    -0.572 OA
ATOM     76  O4S SGN d 802     -35.753  79.970  14.396  0.00  0.00    -0.572 OA
ATOM     77  O1  SGN d 802     -30.283  83.339  18.190  0.00  0.00    -0.348 OA
ATOM     78  O6  SGN d 802     -33.938  81.714  15.222  0.00  0.00    -0.254 OA
ATOM     79  H   SGN d 802     -33.521  87.646  18.087  0.00  0.00     0.231 HD
ATOM     80  H   SGN d 802     -32.128  88.215  19.968  0.00  0.00     0.231 HD
ATOM     81  H   SGN d 802     -34.724  84.755  18.998  0.00  0.00     0.210 HD
ATOM     82  H   SGN d 802     -32.324  85.734  19.744  0.00  0.00     0.140 HD
ATOM     83  H   SGN d 802     -29.573  87.088  17.889  0.00  0.00     0.231 HD
ENDROOT
TORSDOF 33
