REMARK  0 active torsions:
REMARK  status: ('A' for Active; 'I' for Inactive)
REMARK       I    between atoms: O15_1  and  C10_31 
REMARK       I    between atoms: C17_4  and  O25_18 
REMARK       I    between atoms: O28_6  and  S20_15 
REMARK       I    between atoms: O3_7  and  C1_22 
REMARK       I    between atoms: O3_7  and  C7_24 
REMARK       I    between atoms: O30_8  and  S20_15 
REMARK       I    between atoms: C2_10  and  C6_27 
REMARK       I    between atoms: O18_13  and  C12_30 
REMARK       I    between atoms: O18_13  and  S26_34 
REMARK       I    between atoms: S20_15  and  N14_20 
REMARK       I    between atoms: S20_15  and  O29_29 
REMARK       I    between atoms: C4_16  and  O9_17 
REMARK       I    between atoms: N14_20  and  C8_26 
REMARK       I    between atoms: C6_27  and  O11_28 
REMARK       I    between atoms: O11_28  and  S16_32 
REMARK       I    between atoms: C19_33  and  C27_35 
ROOT
ATOM      1  O15 H1S d  69       4.531   3.398  12.506  0.00  0.00    -0.369 OA
ATOM      2  O22 H1S d  69       6.216   0.169  16.068  0.00  0.00    -0.572 OA
ATOM      3  O31 H1S d  69       5.556  -3.015   5.608  0.00  0.00    -0.572 OA
ATOM      4  C17 H1S d  69       6.676  -3.889   9.195  0.00  0.00     0.179 C 
ATOM      5  O5  H1S d  69       4.652   0.871  13.202  0.00  0.00    -0.350 OA
ATOM      6  O28 H1S d  69       1.088   0.643   9.283  0.00  0.00    -0.296 OA
ATOM      7  O3  H1S d  69       5.934  -1.811  10.793  0.00  0.00    -0.348 OA
ATOM      8  O30 H1S d  69       2.808   1.967   8.382  0.00  0.00    -0.296 OA
ATOM      9  O32 H1S d  69       5.696  -5.288   6.443  0.00  0.00    -0.572 OA
ATOM     10  C2  H1S d  69       4.886  -0.511  12.699  0.00  0.00     0.181 C 
ATOM     11  O35 H1S d  69       3.329  -4.931  12.761  0.00  0.00    -0.642 OA
ATOM     12  O13 H1S d  69       4.193  -3.274  10.733  0.00  0.00    -0.311 OA
ATOM     13  O18 H1S d  69       4.653  -3.561   7.829  0.00  0.00    -0.244 OA
ATOM     14  O21 H1S d  69       3.866   0.646  16.509  0.00  0.00    -0.572 OA
ATOM     15  S20 H1S d  69       2.557   0.780   9.200  0.00  0.00     0.156 S 
ATOM     16  C4  H1S d  69       5.601   0.436  10.315  0.00  0.00     0.173 C 
ATOM     17  O9  H1S d  69       6.845   1.022   9.812  0.00  0.00    -0.391 OA
ATOM     18  O25 H1S d  69       7.848  -3.147   9.549  0.00  0.00    -0.389 OA
ATOM     19  O34 H1S d  69       5.016  -6.341  12.445  0.00  0.00    -0.642 OA
ATOM     20  N14 H1S d  69       3.227   0.826  10.697  0.00  0.00    -0.210 NA
ATOM     21  O33 H1S d  69       3.488  -4.216   6.029  0.00  0.00    -0.572 OA
ATOM     22  C1  H1S d  69       5.861  -0.551  11.468  0.00  0.00     0.186 C 
ATOM     23  C24 H1S d  69       6.115  -4.761  10.366  0.00  0.00     0.051 C 
ATOM     24  C7  H1S d  69       4.888  -2.284   9.902  0.00  0.00     0.300 C 
ATOM     25  O23 H1S d  69       4.806  -1.365  17.455  0.00  0.00    -0.572 OA
ATOM     26  C8  H1S d  69       4.564   1.464  10.757  0.00  0.00     0.157 C 
ATOM     27  C6  H1S d  69       5.357  -1.412  13.851  0.00  0.00     0.227 C 
ATOM     28  O11 H1S d  69       4.491  -1.218  15.031  0.00  0.00    -0.254 OA
ATOM     29  O29 H1S d  69       3.094  -0.394   8.446  0.00  0.00    -0.296 OA
ATOM     30  C12 H1S d  69       5.605  -2.890   8.683  0.00  0.00     0.233 C 
ATOM     31  C10 H1S d  69       4.938   1.949  12.197  0.00  0.00     0.278 C 
ATOM     32  S16 H1S d  69       4.843  -0.462  16.248  0.00  0.00     0.251 S 
ATOM     33  C19 H1S d  69       4.922  -4.405  11.046  0.00  0.00     0.147 C 
ATOM     34  S26 H1S d  69       4.875  -4.035   6.470  0.00  0.00     0.252 S 
ATOM     35  C27 H1S d  69       4.381  -5.297  12.173  0.00  0.00     0.233 C 
ATOM     36  H   H1S d  69       4.796   3.622  13.412  0.00  0.00     0.212 HD
ATOM     37  H   H1S d  69       0.720   1.397   9.770  0.00  0.00     0.231 HD
ATOM     38  H   H1S d  69       2.472   2.753   8.841  0.00  0.00     0.231 HD
ATOM     39  H   H1S d  69       7.279   1.518  10.523  0.00  0.00     0.210 HD
ATOM     40  H   H1S d  69       7.628  -2.508  10.245  0.00  0.00     0.210 HD
ATOM     41  H   H1S d  69       3.317  -0.132  11.035  0.00  0.00     0.140 HD
ATOM     42  H   H1S d  69       2.697  -0.419   7.561  0.00  0.00     0.231 HD
ENDROOT
TORSDOF 16
