REMARK  0 active torsions:
REMARK  status: ('A' for Active; 'I' for Inactive)
REMARK       I    between atoms: O2_2  and  S_22 
REMARK       I    between atoms: O2_2  and  C2_6 
REMARK       I    between atoms: O3S_3  and  S1_31 
REMARK       I    between atoms: O2S_4  and  S1_31 
REMARK       I    between atoms: O3_5  and  C3_13 
REMARK       I    between atoms: C2_12  and  N_17 
REMARK       I    between atoms: N_17  and  S1_31 
REMARK       I    between atoms: C3_23  and  O3_27 
REMARK       I    between atoms: C4_25  and  O4_26 
REMARK       I    between atoms: O4_26  and  C1_34 
REMARK       I    between atoms: O1S_29  and  S1_31 
REMARK       I    between atoms: C6_30  and  C5_35 
REMARK       I    between atoms: O1_33  and  C1_41 
ROOT
ATOM      1  O6  SGN d 377      27.842  16.282  25.843  0.00  0.00    -0.249 OA
ATOM      2  O3S SGN d 377      26.883  22.151  21.303  0.00  0.00    -0.296 OA
ATOM      3  O2S SGN d 377      26.731  21.903  23.725  0.00  0.00    -0.296 OA
ATOM      4  O4S SGN d 377      30.606  14.481  25.088  0.00  0.00    -0.066 OA
ATOM      5  O4S SGN d 377      29.504  16.546  27.702  0.00  0.00    -0.166 OA
ATOM      6  C2  SGN d 377      26.391  19.259  22.833  0.00  0.00     0.157 C 
ATOM      7  O6  SGN d 377      28.595  15.492  24.326  0.00  0.00    -0.249 OA
ATOM      8  O6S SGN d 377      29.696  13.845  22.912  0.00  0.00    -0.166 OA
ATOM      9  N   SGN d 377      25.642  20.289  22.146  0.00  0.00    -0.210 NA
ATOM     10  S2  SGN d 377      29.399  14.173  24.315  0.00  0.00     0.429 S 
ATOM     11  O5  SGN d 377      26.139  17.630  24.536  0.00  0.00    -0.342 OA
ATOM     12  O5S SGN d 377      28.593  13.154  24.989  0.00  0.00    -0.166 OA
ATOM     13  C6  SGN d 377      27.236  15.530  24.697  0.00  0.00     0.235 C 
ATOM     14  C3  SGN d 377      26.927  18.185  21.896  0.00  0.00     0.173 C 
ATOM     15  C4  SGN d 377      27.602  17.095  22.740  0.00  0.00     0.194 C 
ATOM     16  O4  SGN d 377      28.180  16.059  21.944  0.00  0.00    -0.347 OA
ATOM     17  O3  SGN d 377      27.826  18.840  21.023  0.00  0.00    -0.391 OA
ATOM     18  O5S SGN d 377      27.982  14.728  27.738  0.00  0.00    -0.166 OA
ATOM     19  O1S SGN d 377      24.822  22.638  22.488  0.00  0.00    -0.296 OA
ATOM     20  S1  SGN d 377      26.039  21.813  22.434  0.00  0.00     0.156 S 
ATOM     21  O1  SGN d 377      24.321  18.103  23.231  0.00  0.00    -0.369 OA
ATOM     22  O6S SGN d 377      29.758  14.790  26.056  0.00  0.00    -0.066 OA
ATOM     23  C5  SGN d 377      26.596  16.549  23.766  0.00  0.00     0.138 C 
ATOM     24  C6  SGN d 377      27.191  15.578  24.797  0.00  0.00     0.235 C 
ATOM     25  S2  SGN d 377      28.794  15.562  26.848  0.00  0.00     0.429 S 
ATOM     26  C1  SGN d 377      25.471  18.646  23.857  0.00  0.00     0.279 C 
ATOM     27  H   SGN d 377      27.671  21.585  21.307  0.00  0.00     0.231 HD
ATOM     28  H   SGN d 377      27.535  21.362  23.699  0.00  0.00     0.231 HD
ATOM     29  H   SGN d 377      24.661  20.176  22.403  0.00  0.00     0.140 HD
ATOM     30  H   SGN d 377      28.518  19.279  21.542  0.00  0.00     0.210 HD
ATOM     31  H   SGN d 377      25.064  23.561  22.663  0.00  0.00     0.231 HD
ATOM     32  H   SGN d 377      23.850  18.805  22.756  0.00  0.00     0.212 HD
ATOM     33  O2  IXD d   2      28.652  14.446  19.376  0.00  0.00    -0.244 OA
ATOM     34  O3  IXD d   2      31.203  13.965  19.029  0.00  0.00    -0.393 OA
ATOM     35  C2  IXD d   2      29.457  15.603  19.631  0.00  0.00     0.228 C 
ATOM     36  O5  IXD d   2      30.089  17.223  21.286  0.00  0.00    -0.343 OA
ATOM     37  O2S IXD d   2      27.069  15.636  17.930  0.00  0.00    -0.572 OA
ATOM     38  O1S IXD d   2      27.119  13.157  17.843  0.00  0.00    -0.572 OA
ATOM     39  C3  IXD d   2      30.955  15.325  19.419  0.00  0.00     0.156 C 
ATOM     40  O3S IXD d   2      28.876  14.483  16.899  0.00  0.00    -0.572 OA
ATOM     41  S   IXD d   2      27.903  14.409  18.014  0.00  0.00     0.252 S 
ATOM     42  C4  IXD d   2      31.762  15.681  20.643  0.00  0.00     0.077 C 
ATOM     43  C6  IXD d   2      32.507  17.695  21.817  0.00  0.00     0.203 C 
ATOM     44  O61 IXD d   2      33.644  17.240  22.072  0.00  0.00    -0.646 OA
ATOM     45  C1  IXD d   2      29.128  16.195  21.004  0.00  0.00     0.294 C 
ATOM     46  C5  IXD d   2      31.479  16.840  21.240  0.00  0.00     0.228 C 
ATOM     47  O62 IXD d   2      32.214  18.874  22.044  0.00  0.00    -0.646 OA
ATOM     48  H   IXD d   2      30.677  13.753  18.242  0.00  0.00     0.210 HD
ENDROOT
TORSDOF 13
