REMARK  0 active torsions:
REMARK  status: ('A' for Active; 'I' for Inactive)
REMARK       I    between atoms: N_1  and  C2_45 
REMARK       I    between atoms: N_1  and  C7_27 
REMARK       I    between atoms: C7_2  and  N_38 
REMARK       I    between atoms: O4_3  and  C4_18 
REMARK       I    between atoms: O4_3  and  C1_35 
REMARK       I    between atoms: C5_6  and  C6_26 
REMARK       I    between atoms: C4_7  and  O4_33 
REMARK       I    between atoms: S_8  and  O4_33 
REMARK       I    between atoms: O3_9  and  C3_57 
REMARK       I    between atoms: O3_9  and  C1_52 
REMARK       I    between atoms: O2_10  and  C2_24 
REMARK       I    between atoms: C3_12  and  O3_21 
REMARK       I    between atoms: C6_14  and  C5_40 
REMARK       I    between atoms: C6_14  and  O6_16 
REMARK       I    between atoms: O6_15  and  C6_26 
REMARK       I    between atoms: C4_17  and  O4_55 
REMARK       I    between atoms: C5_19  and  C6_32 
REMARK       I    between atoms: C1_23  and  O3_44 
REMARK       I    between atoms: O3_25  and  C3_31 
REMARK       I    between atoms: O2_28  and  C2_58 
REMARK       I    between atoms: S_36  and  O4_55 
REMARK       I    between atoms: O1_37  and  C1_59 
REMARK       I    between atoms: N_38  and  C2_56 
REMARK       I    between atoms: C3_39  and  O3_44 
REMARK       I    between atoms: C6_41  and  C5_47 
ROOT
ATOM      1  N   ASG d 610      31.476  26.449  -6.133  0.00  0.00    -0.349 N 
ATOM      2  O5  ASG d 610      27.907  27.388  -6.421  0.00  0.00    -0.349 OA
ATOM      3  C4  ASG d 610      29.137  28.807  -7.951  0.00  0.00     0.207 C 
ATOM      4  S   ASG d 610      28.674  28.631 -10.515  0.00  0.00     0.252 S 
ATOM      5  OSA ASG d 610      27.507  29.527 -10.520  0.00  0.00    -0.572 OA
ATOM      6  C6  ASG d 610      26.704  29.253  -7.291  0.00  0.00     0.199 C 
ATOM      7  O6  ASG d 610      25.825  29.389  -6.182  0.00  0.00    -0.398 OA
ATOM      8  C7  ASG d 610      32.125  25.374  -6.570  0.00  0.00     0.214 C 
ATOM      9  OSC ASG d 610      28.480  27.583 -11.536  0.00  0.00    -0.572 OA
ATOM     10  O4  ASG d 610      28.744  27.962  -9.055  0.00  0.00    -0.246 OA
ATOM     11  C1  ASG d 610      29.103  26.854  -5.822  0.00  0.00     0.286 C 
ATOM     12  C3  ASG d 610      30.455  28.307  -7.330  0.00  0.00     0.185 C 
ATOM     13  C5  ASG d 610      28.068  28.753  -6.855  0.00  0.00     0.181 C 
ATOM     14  O3  ASG d 610      31.538  28.340  -8.281  0.00  0.00    -0.348 OA
ATOM     15  C2  ASG d 610      30.269  26.891  -6.804  0.00  0.00     0.171 C 
ATOM     16  O7  ASG d 610      31.819  24.776  -7.605  0.00  0.00    -0.274 OA
ATOM     17  OSB ASG d 610      29.898  29.410 -10.792  0.00  0.00    -0.572 OA
ATOM     18  C8  ASG d 610      33.301  24.889  -5.729  0.00  0.00     0.117 C 
ATOM     19  H   ASG d 610      31.815  26.945  -5.353  0.00  0.00     0.163 HD
ATOM     20  H   ASG d 610      25.703  28.525  -5.758  0.00  0.00     0.209 HD
ATOM     21  C7  ASG d 608      23.690  21.084  -1.408  0.00  0.00     0.214 C 
ATOM     22  O7  ASG d 608      22.931  22.008  -1.118  0.00  0.00    -0.274 OA
ATOM     23  C5  ASG d 608      27.505  22.532   1.988  0.00  0.00     0.181 C 
ATOM     24  O3  ASG d 608      25.969  23.433  -1.327  0.00  0.00    -0.348 OA
ATOM     25  O6  ASG d 608      29.290  23.944   2.903  0.00  0.00    -0.398 OA
ATOM     26  C4  ASG d 608      27.008  23.439   0.861  0.00  0.00     0.207 C 
ATOM     27  OSB ASG d 608      27.387  26.211   0.715  0.00  0.00    -0.572 OA
ATOM     28  C6  ASG d 608      28.038  23.326   3.187  0.00  0.00     0.199 C 
ATOM     29  OSA ASG d 608      25.734  26.515   2.445  0.00  0.00    -0.572 OA
ATOM     30  S   ASG d 608      26.020  25.870   1.147  0.00  0.00     0.252 S 
ATOM     31  O1  ASG d 608      24.712  20.263   2.060  0.00  0.00    -0.369 OA
ATOM     32  N   ASG d 608      24.835  20.844  -0.769  0.00  0.00    -0.349 N 
ATOM     33  O5  ASG d 608      26.401  21.741   2.486  0.00  0.00    -0.349 OA
ATOM     34  C8  ASG d 608      23.315  20.138  -2.542  0.00  0.00     0.117 C 
ATOM     35  OSC ASG d 608      25.114  26.261   0.049  0.00  0.00    -0.572 OA
ATOM     36  O4  ASG d 608      26.017  24.304   1.443  0.00  0.00    -0.246 OA
ATOM     37  C2  ASG d 608      25.303  21.735   0.281  0.00  0.00     0.171 C 
ATOM     38  C3  ASG d 608      26.442  22.592  -0.258  0.00  0.00     0.185 C 
ATOM     39  C1  ASG d 608      25.795  20.903   1.482  0.00  0.00     0.282 C 
ATOM     40  H   ASG d 608      29.593  24.435   3.683  0.00  0.00     0.209 HD
ATOM     41  H   ASG d 608      25.014  19.737   2.817  0.00  0.00     0.212 HD
ATOM     42  H   ASG d 608      25.370  20.054  -1.011  0.00  0.00     0.163 HD
ATOM     43  O4  BDP d 609      28.861  25.542  -5.466  0.00  0.00    -0.348 OA
ATOM     44  O5  BDP d 609      27.769  24.637  -2.078  0.00  0.00    -0.340 OA
ATOM     45  C4  BDP d 609      27.949  25.344  -4.384  0.00  0.00     0.195 C 
ATOM     46  C5  BDP d 609      28.705  24.882  -3.144  0.00  0.00     0.257 C 
ATOM     47  O3  BDP d 609      26.174  24.823  -5.892  0.00  0.00    -0.390 OA
ATOM     48  O2  BDP d 609      25.161  22.892  -3.999  0.00  0.00    -0.388 OA
ATOM     49  C3  BDP d 609      26.930  24.303  -4.806  0.00  0.00     0.183 C 
ATOM     50  C6  BDP d 609      29.697  25.915  -2.641  0.00  0.00     0.206 C 
ATOM     51  O6B BDP d 609      29.258  27.030  -2.291  0.00  0.00    -0.646 OA
ATOM     52  O6A BDP d 609      30.902  25.582  -2.639  0.00  0.00    -0.646 OA
ATOM     53  C1  BDP d 609      26.822  23.598  -2.402  0.00  0.00     0.292 C 
ATOM     54  C2  BDP d 609      26.003  23.979  -3.643  0.00  0.00     0.204 C 
ATOM     55  H   BDP d 609      26.768  25.028  -6.631  0.00  0.00     0.210 HD
ATOM     56  H   BDP d 609      24.642  23.129  -4.783  0.00  0.00     0.210 HD
ATOM     57  O2  GCD d 611      34.378  27.851  -8.059  0.00  0.00    -0.388 OA
ATOM     58  C3  GCD d 611      34.682  30.268  -8.428  0.00  0.00     0.177 C 
ATOM     59  O6B GCD d 611      31.561  33.626  -7.642  0.00  0.00    -0.642 OA
ATOM     60  O3  GCD d 611      35.882  29.977  -9.159  0.00  0.00    -0.389 OA
ATOM     61  C1  GCD d 611      32.466  29.337  -8.048  0.00  0.00     0.298 C 
ATOM     62  C2  GCD d 611      33.771  29.011  -8.701  0.00  0.00     0.206 C 
ATOM     63  C6  GCD d 611      31.864  33.040  -8.755  0.00  0.00     0.233 C 
ATOM     64  O6A GCD d 611      31.498  33.292  -9.968  0.00  0.00    -0.642 OA
ATOM     65  C5  GCD d 611      32.712  31.796  -8.672  0.00  0.00     0.147 C 
ATOM     66  O5  GCD d 611      31.950  30.538  -8.810  0.00  0.00    -0.311 OA
ATOM     67  C4  GCD d 611      34.052  31.710  -8.471  0.00  0.00     0.051 C 
ATOM     68  H   GCD d 611      35.223  27.648  -8.490  0.00  0.00     0.210 HD
ATOM     69  H   GCD d 611      35.670  29.869 -10.099  0.00  0.00     0.210 HD
ENDROOT
TORSDOF 23
