REMARK  0 active torsions:
REMARK  status: ('A' for Active; 'I' for Inactive)
REMARK       I    between atoms: C1_1  and  O1_26 
REMARK       I    between atoms: C6_2  and  C5_3 
REMARK       I    between atoms: O2_6  and  C2_15 
REMARK       I    between atoms: O4_7  and  C4_17 
REMARK       I    between atoms: O4_7  and  S_16 
REMARK       I    between atoms: C3_8  and  O3_9 
REMARK       I    between atoms: C6_10  and  C5_28 
REMARK       I    between atoms: C6_10  and  O6_14 
REMARK       I    between atoms: O3_13  and  C3_23 
REMARK       I    between atoms: O3_13  and  C1_30 
REMARK       I    between atoms: C7_20  and  N_27 
REMARK       I    between atoms: C2_24  and  N_27 
ROOT
ATOM      1  C1  ASG d 523      34.310  17.384  -4.897  0.00  0.00     0.282 C 
ATOM      2  C8  ASG d 523      35.646  12.740  -4.476  0.00  0.00     0.117 C 
ATOM      3  O4  ASG d 523      31.025  16.647  -4.528  0.00  0.00    -0.246 OA
ATOM      4  C6  ASG d 523      31.231  19.340  -5.638  0.00  0.00     0.199 C 
ATOM      5  O5  ASG d 523      33.183  18.267  -4.711  0.00  0.00    -0.349 OA
ATOM      6  O3  ASG d 523      32.052  14.551  -5.802  0.00  0.00    -0.348 OA
ATOM      7  O6  ASG d 523      31.871  20.602  -5.619  0.00  0.00    -0.398 OA
ATOM      8  S   ASG d 523      29.397  16.483  -4.408  0.00  0.00     0.252 S 
ATOM      9  C4  ASG d 523      31.625  16.892  -5.812  0.00  0.00     0.207 C 
ATOM     10  OSB ASG d 523      28.932  16.558  -2.928  0.00  0.00    -0.572 OA
ATOM     11  C7  ASG d 523      34.744  13.872  -4.097  0.00  0.00     0.214 C 
ATOM     12  O7  ASG d 523      34.088  13.736  -3.100  0.00  0.00    -0.274 OA
ATOM     13  OSC ASG d 523      29.047  15.227  -4.991  0.00  0.00    -0.572 OA
ATOM     14  C3  ASG d 523      32.698  15.818  -5.951  0.00  0.00     0.185 C 
ATOM     15  C2  ASG d 523      33.706  15.980  -4.815  0.00  0.00     0.171 C 
ATOM     16  OSA ASG d 523      28.867  17.585  -5.166  0.00  0.00    -0.572 OA
ATOM     17  O1  ASG d 523      35.065  17.551  -3.737  0.00  0.00    -0.369 OA
ATOM     18  N   ASG d 523      34.728  14.946  -4.897  0.00  0.00    -0.349 N 
ATOM     19  C5  ASG d 523      32.281  18.261  -5.825  0.00  0.00     0.181 C 
ATOM     20  H   ASG d 523      32.509  20.630  -4.889  0.00  0.00     0.209 HD
ATOM     21  H   ASG d 523      34.506  17.390  -2.961  0.00  0.00     0.212 HD
ATOM     22  H   ASG d 523      35.439  15.041  -5.571  0.00  0.00     0.163 HD
ATOM     23  C6  GCD d 525      30.205  14.760  -9.660  0.00  0.00     0.233 C 
ATOM     24  C5  GCD d 525      30.715  13.984  -8.518  0.00  0.00     0.147 C 
ATOM     25  O6B GCD d 525      30.894  15.667 -10.174  0.00  0.00    -0.642 OA
ATOM     26  O2  GCD d 525      32.376  11.334  -7.511  0.00  0.00    -0.388 OA
ATOM     27  C3  GCD d 525      30.319  12.310  -6.664  0.00  0.00     0.177 C 
ATOM     28  O3  GCD d 525      29.759  12.761  -5.433  0.00  0.00    -0.389 OA
ATOM     29  O6A GCD d 525      29.075  14.464 -10.089  0.00  0.00    -0.642 OA
ATOM     30  C2  GCD d 525      31.853  12.259  -6.558  0.00  0.00     0.206 C 
ATOM     31  O5  GCD d 525      32.118  14.071  -8.131  0.00  0.00    -0.311 OA
ATOM     32  C4  GCD d 525      29.889  13.180  -7.833  0.00  0.00     0.051 C 
ATOM     33  C1  GCD d 525      32.483  13.631  -6.823  0.00  0.00     0.298 C 
ATOM     34  H   GCD d 525      31.988  10.458  -7.358  0.00  0.00     0.210 HD
ATOM     35  H   GCD d 525      30.080  13.656  -5.240  0.00  0.00     0.210 HD
ENDROOT
TORSDOF 11
