REMARK  0 active torsions:
REMARK  status: ('A' for Active; 'I' for Inactive)
REMARK       I    between atoms: C1_1  and  O3_24 
REMARK       I    between atoms: O2_2  and  C2_43 
REMARK       I    between atoms: O4_3  and  C4_42 
REMARK       I    between atoms: O6_5  and  C6_18 
REMARK       I    between atoms: N2_6  and  C2_53 
REMARK       I    between atoms: N2_6  and  C7_29 
REMARK       I    between atoms: C2_7  and  O2_22 
REMARK       I    between atoms: C5_8  and  C6_49 
REMARK       I    between atoms: C3_9  and  O3_26 
REMARK       I    between atoms: C5_10  and  C6_18 
REMARK       I    between atoms: O4_12  and  C4_16 
REMARK       I    between atoms: O3_13  and  C3_15 
REMARK       I    between atoms: C5_20  and  C6_31 
REMARK       I    between atoms: C5_21  and  C6_34 
REMARK       I    between atoms: O4_23  and  C1_33 
REMARK       I    between atoms: O4_23  and  C4_27 
REMARK       I    between atoms: O3_24  and  C3_52 
REMARK       I    between atoms: C1_25  and  O3_26 
REMARK       I    between atoms: C2_30  and  N2_35 
REMARK       I    between atoms: C6_31  and  O6_39 
REMARK       I    between atoms: N2_35  and  C7_37 
REMARK       I    between atoms: C3_38  and  O3_47 
REMARK       I    between atoms: C4_40  and  O4_50 
ROOT
ATOM      1  C1  GCU d 401       8.433  31.116 -13.284  0.00  0.00     0.292 C 
ATOM      2  C2  GCU d 401       9.323  32.357 -13.343  0.00  0.00     0.204 C 
ATOM      3  C5  GCU d 401       8.647  30.790 -15.569  0.00  0.00     0.256 C 
ATOM      4  O6A GCU d 401       8.786  28.558 -16.130  0.00  0.00    -0.646 OA
ATOM      5  O4  GCU d 401       9.028  32.672 -17.010  0.00  0.00    -0.390 OA
ATOM      6  C4  GCU d 401       9.494  32.050 -15.808  0.00  0.00     0.189 C 
ATOM      7  O2  GCU d 401       8.947  33.280 -12.333  0.00  0.00    -0.388 OA
ATOM      8  C3  GCU d 401       9.277  33.050 -14.683  0.00  0.00     0.183 C 
ATOM      9  O5  GCU d 401       8.924  30.235 -14.296  0.00  0.00    -0.340 OA
ATOM     10  O3  GCU d 401      10.308  34.045 -14.790  0.00  0.00    -0.390 OA
ATOM     11  C6  GCU d 401       8.830  29.723 -16.579  0.00  0.00     0.206 C 
ATOM     12  O6B GCU d 401       8.974  30.229 -17.712  0.00  0.00    -0.646 OA
ATOM     13  H   GCU d 401       9.149  32.064 -17.756  0.00  0.00     0.210 HD
ATOM     14  H   GCU d 401       8.037  33.578 -12.490  0.00  0.00     0.210 HD
ATOM     15  H   GCU d 401      11.177  33.620 -14.717  0.00  0.00     0.210 HD
ATOM     16  O2  GCU d 403       3.830  29.814  -4.152  0.00  0.00    -0.388 OA
ATOM     17  O6A GCU d 403       2.379  28.150  -9.726  0.00  0.00    -0.646 OA
ATOM     18  O3  GCU d 403       6.035  29.901  -6.029  0.00  0.00    -0.390 OA
ATOM     19  C3  GCU d 403       4.654  30.063  -6.386  0.00  0.00     0.183 C 
ATOM     20  C5  GCU d 403       2.981  29.868  -8.231  0.00  0.00     0.257 C 
ATOM     21  O4  GCU d 403       5.338  30.278  -8.687  0.00  0.00    -0.348 OA
ATOM     22  C1  GCU d 403       2.279  29.479  -5.895  0.00  0.00     0.292 C 
ATOM     23  C4  GCU d 403       4.440  29.632  -7.827  0.00  0.00     0.195 C 
ATOM     24  O5  GCU d 403       2.140  29.282  -7.274  0.00  0.00    -0.340 OA
ATOM     25  C6  GCU d 403       2.597  29.376  -9.580  0.00  0.00     0.206 C 
ATOM     26  O6B GCU d 403       2.523  30.230 -10.486  0.00  0.00    -0.646 OA
ATOM     27  C2  GCU d 403       3.736  29.289  -5.477  0.00  0.00     0.204 C 
ATOM     28  H   GCU d 403       4.740  29.720  -3.831  0.00  0.00     0.210 HD
ATOM     29  H   GCU d 403       6.166  30.178  -5.109  0.00  0.00     0.210 HD
ATOM     30  O4  NAG d 402       9.004  27.781 -11.807  0.00  0.00    -0.390 OA
ATOM     31  C5  NAG d 402       7.558  27.757  -9.913  0.00  0.00     0.179 C 
ATOM     32  O3  NAG d 402       8.569  30.541 -12.111  0.00  0.00    -0.348 OA
ATOM     33  C8  NAG d 402       5.062  33.803 -11.433  0.00  0.00     0.117 C 
ATOM     34  C2  NAG d 402       6.817  30.504 -10.462  0.00  0.00     0.171 C 
ATOM     35  C6  NAG d 402       8.309  26.721  -9.113  0.00  0.00     0.198 C 
ATOM     36  C1  NAG d 402       6.006  29.550  -9.580  0.00  0.00     0.286 C 
ATOM     37  N2  NAG d 402       5.910  31.515 -11.028  0.00  0.00    -0.349 N 
ATOM     38  C7  NAG d 402       6.044  32.849 -10.775  0.00  0.00     0.214 C 
ATOM     39  O6  NAG d 402       9.061  27.229  -8.014  0.00  0.00    -0.398 OA
ATOM     40  C4  NAG d 402       8.426  28.623 -10.806  0.00  0.00     0.180 C 
ATOM     41  O7  NAG d 402       6.906  33.311 -10.056  0.00  0.00    -0.274 OA
ATOM     42  O5  NAG d 402       6.875  28.601  -8.983  0.00  0.00    -0.349 OA
ATOM     43  C3  NAG d 402       7.604  29.720 -11.498  0.00  0.00     0.183 C 
ATOM     44  H   NAG d 402       9.526  27.084 -11.381  0.00  0.00     0.210 HD
ATOM     45  H   NAG d 402       5.177  31.217 -11.613  0.00  0.00     0.163 HD
ATOM     46  H   NAG d 402       9.753  27.823  -8.343  0.00  0.00     0.209 HD
ATOM     47  O6  NAG d 404      -3.836  25.972  -4.766  0.00  0.00    -0.398 OA
ATOM     48  N2  NAG d 404      -0.378  30.835  -3.614  0.00  0.00    -0.349 N 
ATOM     49  C3  NAG d 404       0.211  28.790  -4.924  0.00  0.00     0.184 C 
ATOM     50  C5  NAG d 404      -1.913  27.534  -5.204  0.00  0.00     0.180 C 
ATOM     51  O5  NAG d 404      -2.358  28.127  -3.988  0.00  0.00    -0.337 OA
ATOM     52  O7  NAG d 404      -2.436  31.001  -4.597  0.00  0.00    -0.274 OA
ATOM     53  C6  NAG d 404      -2.628  26.237  -5.496  0.00  0.00     0.198 C 
ATOM     54  C8  NAG d 404      -1.249  33.028  -4.169  0.00  0.00     0.117 C 
ATOM     55  O3  NAG d 404       1.595  28.798  -5.030  0.00  0.00    -0.348 OA
ATOM     56  C7  NAG d 404      -1.423  31.537  -4.155  0.00  0.00     0.214 C 
ATOM     57  C4  NAG d 404      -0.386  27.398  -5.126  0.00  0.00     0.180 C 
ATOM     58  C1  NAG d 404      -1.394  28.586  -3.092  0.00  0.00     0.283 C 
ATOM     59  O4  NAG d 404       0.040  26.779  -6.345  0.00  0.00    -0.390 OA
ATOM     60  C2  NAG d 404      -0.221  29.369  -3.584  0.00  0.00     0.187 C 
ATOM     61  H   NAG d 404      -4.198  25.115  -5.041  0.00  0.00     0.209 HD
ATOM     62  H   NAG d 404       0.343  31.364  -3.203  0.00  0.00     0.163 HD
ATOM     63  H   NAG d 404      -0.249  27.317  -7.099  0.00  0.00     0.210 HD
ATOM     64  O4  GCU d 405      -1.949  28.854  -1.891  0.00  0.00    -0.189 OA
ENDROOT
TORSDOF 21
