REMARK  0 active torsions:
REMARK  status: ('A' for Active; 'I' for Inactive)
REMARK       I    between atoms: C5_1  and  C6_18 
REMARK       I    between atoms: C5_2  and  C6_30 
REMARK       I    between atoms: O4_3  and  C4_14 
REMARK       I    between atoms: C2_4  and  O2_23 
REMARK       I    between atoms: C7_5  and  N_24 
REMARK       I    between atoms: S_9  and  O6_13 
REMARK       I    between atoms: O1_12  and  C1_29 
REMARK       I    between atoms: O6_13  and  C6_18 
REMARK       I    between atoms: C3_15  and  O3_28 
REMARK       I    between atoms: C3_16  and  O3_20 
REMARK       I    between atoms: C2_19  and  N_24 
REMARK       I    between atoms: C1_26  and  O3_28 
ROOT
ATOM      1  C5  NG6 d 399      15.303  -2.829  30.317  0.00  0.00     0.181 C 
ATOM      2  O4  NG6 d 399      13.021  -2.053  30.384  0.00  0.00    -0.390 OA
ATOM      3  C7  NG6 d 399      14.413  -7.015  28.832  0.00  0.00     0.214 C 
ATOM      4  O3S NG6 d 399      17.774  -1.764  33.975  0.00  0.00    -0.572 OA
ATOM      5  O7  NG6 d 399      14.347  -8.095  28.246  0.00  0.00    -0.274 OA
ATOM      6  O1S NG6 d 399      16.006  -0.209  33.307  0.00  0.00    -0.572 OA
ATOM      7  S   NG6 d 399      17.243  -0.932  32.849  0.00  0.00     0.251 S 
ATOM      8  O5  NG6 d 399      15.040  -3.749  31.371  0.00  0.00    -0.349 OA
ATOM      9  O1  NG6 d 399      14.527  -5.908  31.990  0.00  0.00    -0.369 OA
ATOM     10  O6  NG6 d 399      16.926  -1.788  31.744  0.00  0.00    -0.254 OA
ATOM     11  C4  NG6 d 399      14.027  -2.601  29.523  0.00  0.00     0.180 C 
ATOM     12  C3  NG6 d 399      13.543  -3.923  28.924  0.00  0.00     0.183 C 
ATOM     13  C6  NG6 d 399      15.759  -1.539  30.970  0.00  0.00     0.227 C 
ATOM     14  C2  NG6 d 399      13.497  -5.048  29.971  0.00  0.00     0.171 C 
ATOM     15  O2S NG6 d 399      18.273   0.087  32.428  0.00  0.00    -0.572 OA
ATOM     16  N   NG6 d 399      13.354  -6.347  29.283  0.00  0.00    -0.349 N 
ATOM     17  C8  NG6 d 399      15.768  -6.333  29.090  0.00  0.00     0.117 C 
ATOM     18  O3  NG6 d 399      12.222  -3.736  28.429  0.00  0.00    -0.348 OA
ATOM     19  C1  NG6 d 399      14.754  -5.057  30.859  0.00  0.00     0.282 C 
ATOM     20  H   NG6 d 399      13.337  -1.216  30.759  0.00  0.00     0.210 HD
ATOM     21  H   NG6 d 399      15.317  -5.916  32.552  0.00  0.00     0.212 HD
ATOM     22  H   NG6 d 399      12.455  -6.727  29.155  0.00  0.00     0.163 HD
ATOM     23  C5  GCD d 400      11.592  -1.549  25.780  0.00  0.00     0.147 C 
ATOM     24  C2  GCD d 400      11.013  -4.147  26.442  0.00  0.00     0.206 C 
ATOM     25  O6A GCD d 400      12.157   0.635  26.474  0.00  0.00    -0.642 OA
ATOM     26  C3  GCD d 400      10.947  -3.845  24.950  0.00  0.00     0.177 C 
ATOM     27  O5  GCD d 400      12.262  -2.069  26.854  0.00  0.00    -0.311 OA
ATOM     28  O3  GCD d 400       9.717  -4.341  24.411  0.00  0.00    -0.389 OA
ATOM     29  O6B GCD d 400      10.967   0.431  24.629  0.00  0.00    -0.642 OA
ATOM     30  O2  GCD d 400      11.085  -5.553  26.651  0.00  0.00    -0.388 OA
ATOM     31  C4  GCD d 400      10.972  -2.333  24.815  0.00  0.00     0.051 C 
ATOM     32  C1  GCD d 400      12.251  -3.495  27.030  0.00  0.00     0.298 C 
ATOM     33  C6  GCD d 400      11.558  -0.043  25.620  0.00  0.00     0.233 C 
ATOM     34  H   GCD d 400       8.971  -3.932  24.877  0.00  0.00     0.210 HD
ATOM     35  H   GCD d 400      11.881  -5.903  26.221  0.00  0.00     0.210 HD
ENDROOT
TORSDOF 11
