REMARK  0 active torsions:
REMARK  status: ('A' for Active; 'I' for Inactive)
REMARK       I    between atoms: O3_1  and  C3_97 
REMARK       I    between atoms: C2_2  and  N_89 
REMARK       I    between atoms: O2_3  and  C2_18 
REMARK       I    between atoms: O2_3  and  S_42 
REMARK       I    between atoms: O3_4  and  C3_59 
REMARK       I    between atoms: C5_5  and  C6_103 
REMARK       I    between atoms: N_7  and  C2_88 
REMARK       I    between atoms: N_7  and  S1_25 
REMARK       I    between atoms: C5_9  and  C6_23 
REMARK       I    between atoms: O4_10  and  C1_22 
REMARK       I    between atoms: O4_10  and  C4_50 
REMARK       I    between atoms: S2_11  and  O6_75 
REMARK       I    between atoms: O3_12  and  C3_71 
REMARK       I    between atoms: C6_13  and  C5_38 
REMARK       I    between atoms: C6_13  and  O6_73 
REMARK       I    between atoms: C4_14  and  O1_35 
REMARK       I    between atoms: O2S_15  and  S1_25 
REMARK       I    between atoms: C4_16  and  O4_29 
REMARK       I    between atoms: S_19  and  O2_92 
REMARK       I    between atoms: O2_20  and  C2_26 
REMARK       I    between atoms: O2_20  and  S_102 
REMARK       I    between atoms: C6_21  and  C5_86 
REMARK       I    between atoms: C6_21  and  O6_75 
REMARK       I    between atoms: C6_23  and  O6_95 
REMARK       I    between atoms: S1_25  and  O1S_39 
REMARK       I    between atoms: S1_25  and  O3S_93 
REMARK       I    between atoms: C6_28  and  C5_45 
REMARK       I    between atoms: O4_29  and  C1_84 
REMARK       I    between atoms: S1_32  and  N_89 
REMARK       I    between atoms: S1_32  and  O1S_74 
REMARK       I    between atoms: S1_32  and  O2S_34 
REMARK       I    between atoms: S1_32  and  O3S_83 
REMARK       I    between atoms: O1_35  and  C1_40 
REMARK       I    between atoms: S1_37  and  N_96 
REMARK       I    between atoms: S1_37  and  O1S_47 
REMARK       I    between atoms: S1_37  and  O2S_78 
REMARK       I    between atoms: S1_37  and  O3S_52 
REMARK       I    between atoms: C4_41  and  O1_66 
REMARK       I    between atoms: C1_43  and  O1_54 
REMARK       I    between atoms: O4_44  and  C1_91 
REMARK       I    between atoms: O4_44  and  C4_62 
REMARK       I    between atoms: O3_49  and  C3_51 
REMARK       I    between atoms: O3_55  and  C3_67 
REMARK       I    between atoms: C3_56  and  O3_85 
REMARK       I    between atoms: C5_57  and  C6_58 
REMARK       I    between atoms: C1_63  and  O1_66 
REMARK       I    between atoms: C2_68  and  O2_92 
REMARK       I    between atoms: O6_73  and  S2_99 
REMARK       I    between atoms: C2_80  and  N_96 
REMARK       I    between atoms: O6_95  and  S2_98 
ROOT
ATOM      1  O3  SGN d 304     107.834  31.733 120.961  0.00  0.00    -0.391 OA
ATOM      2  O4S SGN d 304     106.516  37.422 116.001  0.00  0.00    -0.572 OA
ATOM      3  C6  SGN d 304     108.378  35.353 117.661  0.00  0.00     0.227 C 
ATOM      4  C4  SGN d 304     108.041  33.447 119.274  0.00  0.00     0.186 C 
ATOM      5  O4  SGN d 304     108.414  32.461 118.300  0.00  0.00    -0.348 OA
ATOM      6  O1  SGN d 304     110.177  35.272 121.513  0.00  0.00    -0.348 OA
ATOM      7  S1  SGN d 304     108.136  34.247 124.446  0.00  0.00     0.156 S 
ATOM      8  C5  SGN d 304     108.774  34.776 118.997  0.00  0.00     0.181 C 
ATOM      9  C1  SGN d 304     108.758  35.371 121.362  0.00  0.00     0.282 C 
ATOM     10  O1S SGN d 304     108.274  35.675 124.423  0.00  0.00    -0.296 OA
ATOM     11  O3S SGN d 304     106.770  33.896 124.667  0.00  0.00    -0.296 OA
ATOM     12  O5S SGN d 304     104.756  35.906 116.395  0.00  0.00    -0.572 OA
ATOM     13  O6  SGN d 304     106.959  35.487 117.673  0.00  0.00    -0.254 OA
ATOM     14  O5  SGN d 304     108.402  35.740 120.017  0.00  0.00    -0.349 OA
ATOM     15  O2S SGN d 304     108.954  33.683 125.465  0.00  0.00    -0.296 OA
ATOM     16  O6S SGN d 304     106.626  35.226 115.113  0.00  0.00    -0.572 OA
ATOM     17  C2  SGN d 304     108.098  34.009 121.686  0.00  0.00     0.157 C 
ATOM     18  N   SGN d 304     108.671  33.544 122.925  0.00  0.00    -0.210 NA
ATOM     19  C3  SGN d 304     108.481  32.951 120.646  0.00  0.00     0.173 C 
ATOM     20  S2  SGN d 304     106.177  36.048 116.214  0.00  0.00     0.251 S 
ATOM     21  H   SGN d 304     108.074  31.060 120.305  0.00  0.00     0.210 HD
ATOM     22  H   SGN d 304     109.204  35.908 124.273  0.00  0.00     0.231 HD
ATOM     23  H   SGN d 304     106.219  34.284 123.969  0.00  0.00     0.231 HD
ATOM     24  H   SGN d 304     109.880  33.926 125.308  0.00  0.00     0.231 HD
ATOM     25  H   SGN d 304     108.486  32.542 122.980  0.00  0.00     0.140 HD
ATOM     26  C2  SGN d 306     117.364  38.431 119.981  0.00  0.00     0.157 C 
ATOM     27  O3  SGN d 306     115.244  39.053 120.887  0.00  0.00    -0.391 OA
ATOM     28  C5  SGN d 306     117.170  35.861 121.263  0.00  0.00     0.181 C 
ATOM     29  O4  SGN d 306     114.946  36.492 122.082  0.00  0.00    -0.348 OA
ATOM     30  C6  SGN d 306     116.835  34.380 121.246  0.00  0.00     0.227 C 
ATOM     31  S1  SGN d 306     117.449  40.946 118.910  0.00  0.00     0.156 S 
ATOM     32  O6S SGN d 306     117.385  31.467 121.513  0.00  0.00    -0.572 OA
ATOM     33  O2S SGN d 306     118.258  40.608 117.780  0.00  0.00    -0.296 OA
ATOM     34  C1  SGN d 306     118.590  37.514 120.116  0.00  0.00     0.278 C 
ATOM     35  C4  SGN d 306     115.909  36.723 121.037  0.00  0.00     0.186 C 
ATOM     36  O1  SGN d 306     119.344  37.901 121.260  0.00  0.00    -0.369 OA
ATOM     37  C3  SGN d 306     116.348  38.190 121.087  0.00  0.00     0.173 C 
ATOM     38  O5  SGN d 306     118.136  36.144 120.206  0.00  0.00    -0.350 OA
ATOM     39  O1S SGN d 306     116.050  40.865 118.573  0.00  0.00    -0.296 OA
ATOM     40  O4S SGN d 306     118.432  31.404 119.391  0.00  0.00    -0.572 OA
ATOM     41  O3S SGN d 306     117.772  42.270 119.380  0.00  0.00    -0.296 OA
ATOM     42  N   SGN d 306     117.822  39.779 120.171  0.00  0.00    -0.210 NA
ATOM     43  O6  SGN d 306     117.556  33.718 120.230  0.00  0.00    -0.254 OA
ATOM     44  S2  SGN d 306     117.365  31.974 120.164  0.00  0.00     0.251 S 
ATOM     45  O5S SGN d 306     116.092  31.698 119.560  0.00  0.00    -0.572 OA
ATOM     46  H   SGN d 306     115.544  39.975 120.922  0.00  0.00     0.210 HD
ATOM     47  H   SGN d 306     118.030  39.716 117.475  0.00  0.00     0.231 HD
ATOM     48  H   SGN d 306     118.788  37.832 122.052  0.00  0.00     0.212 HD
ATOM     49  H   SGN d 306     115.844  39.971 118.258  0.00  0.00     0.231 HD
ATOM     50  H   SGN d 306     117.217  42.486 120.145  0.00  0.00     0.231 HD
ATOM     51  H   SGN d 306     118.837  39.746 120.267  0.00  0.00     0.140 HD
ATOM     52  O2  IDS d 305     113.103  34.288 123.838  0.00  0.00    -0.244 OA
ATOM     53  C4  IDS d 305     110.881  36.447 121.934  0.00  0.00     0.195 C 
ATOM     54  C2  IDS d 305     112.983  35.513 123.127  0.00  0.00     0.231 C 
ATOM     55  C1  IDS d 305     113.823  35.637 121.828  0.00  0.00     0.294 C 
ATOM     56  O61 IDS d 305     110.312  38.190 119.723  0.00  0.00    -0.646 OA
ATOM     57  C6  IDS d 305     111.251  37.386 119.598  0.00  0.00     0.206 C 
ATOM     58  O1S IDS d 305     113.325  32.639 121.831  0.00  0.00    -0.572 OA
ATOM     59  S   IDS d 305     112.594  32.792 123.038  0.00  0.00     0.252 S 
ATOM     60  C5  IDS d 305     111.894  36.795 120.853  0.00  0.00     0.257 C 
ATOM     61  C3  IDS d 305     111.607  36.191 123.269  0.00  0.00     0.185 C 
ATOM     62  O3S IDS d 305     112.905  31.736 123.930  0.00  0.00    -0.572 OA
ATOM     63  O3  IDS d 305     111.771  37.366 123.958  0.00  0.00    -0.390 OA
ATOM     64  O5  IDS d 305     113.037  35.994 120.689  0.00  0.00    -0.340 OA
ATOM     65  O62 IDS d 305     111.545  36.840 118.510  0.00  0.00    -0.646 OA
ATOM     66  O2S IDS d 305     111.202  32.849 122.777  0.00  0.00    -0.572 OA
ATOM     67  H   IDS d 305     112.347  37.960 123.452  0.00  0.00     0.210 HD
ATOM     68  C5  IDS d 303     105.816  30.692 118.239  0.00  0.00     0.257 C 
ATOM     69  O2  IDS d 303     107.466  30.848 115.233  0.00  0.00    -0.244 OA
ATOM     70  C2  IDS d 303     108.038  30.897 116.500  0.00  0.00     0.231 C 
ATOM     71  C4  IDS d 303     106.278  29.394 117.582  0.00  0.00     0.195 C 
ATOM     72  O3  IDS d 303     108.601  29.380 118.269  0.00  0.00    -0.390 OA
ATOM     73  O2S IDS d 303     107.694  31.508 112.735  0.00  0.00    -0.572 OA
ATOM     74  C3  IDS d 303     107.764  29.547 117.185  0.00  0.00     0.185 C 
ATOM     75  O5  IDS d 303     106.176  31.938 117.672  0.00  0.00    -0.340 OA
ATOM     76  O3S IDS d 303     109.694  31.189 113.998  0.00  0.00    -0.572 OA
ATOM     77  O61 IDS d 303     104.249  30.076 119.892  0.00  0.00    -0.646 OA
ATOM     78  O1S IDS d 303     108.334  33.100 114.344  0.00  0.00    -0.572 OA
ATOM     79  C1  IDS d 303     107.518  32.140 117.252  0.00  0.00     0.294 C 
ATOM     80  O62 IDS d 303     103.540  31.207 118.156  0.00  0.00    -0.646 OA
ATOM     81  S   IDS d 303     108.352  31.717 113.995  0.00  0.00     0.252 S 
ATOM     82  C6  IDS d 303     104.419  30.583 118.781  0.00  0.00     0.206 C 
ATOM     83  H   IDS d 303     109.523  29.482 117.985  0.00  0.00     0.210 HD
ATOM     84  O4S SGN d 302     102.784  26.112 120.715  0.00  0.00    -0.572 OA
ATOM     85  N   SGN d 302     105.565  28.873 113.795  0.00  0.00    -0.210 NA
ATOM     86  S2  SGN d 302     101.889  25.536 119.751  0.00  0.00     0.251 S 
ATOM     87  O3  SGN d 302     102.818  28.997 113.210  0.00  0.00    -0.391 OA
ATOM     88  O2S SGN d 302     106.119  26.740 112.444  0.00  0.00    -0.296 OA
ATOM     89  O5S SGN d 302     101.915  24.101 119.829  0.00  0.00    -0.572 OA
ATOM     90  C6  SGN d 302     101.853  27.216 117.650  0.00  0.00     0.227 C 
ATOM     91  S1  SGN d 302     106.362  28.149 112.392  0.00  0.00     0.156 S 
ATOM     92  O5  SGN d 302     104.136  27.284 116.758  0.00  0.00    -0.349 OA
ATOM     93  O1S SGN d 302     105.804  28.719 111.191  0.00  0.00    -0.296 OA
ATOM     94  O4  SGN d 302     101.113  28.799 115.419  0.00  0.00    -0.348 OA
ATOM     95  C4  SGN d 302     102.322  28.099 115.374  0.00  0.00     0.186 C 
ATOM     96  C1  SGN d 302     105.155  27.927 115.947  0.00  0.00     0.282 C 
ATOM     97  O6S SGN d 302     100.540  25.998 119.966  0.00  0.00    -0.572 OA
ATOM     98  O1  SGN d 302     105.468  29.240 116.411  0.00  0.00    -0.348 OA
ATOM     99  C3  SGN d 302     103.314  28.875 114.531  0.00  0.00     0.173 C 
ATOM    100  O6  SGN d 302     102.397  26.010 118.138  0.00  0.00    -0.254 OA
ATOM    101  C5  SGN d 302     102.858  27.973 116.793  0.00  0.00     0.181 C 
ATOM    102  C2  SGN d 302     104.608  28.077 114.525  0.00  0.00     0.157 C 
ATOM    103  O3S SGN d 302     107.781  28.395 112.461  0.00  0.00    -0.296 OA
ATOM    104  H   SGN d 302     106.297  29.143 114.452  0.00  0.00     0.140 HD
ATOM    105  H   SGN d 302     101.993  29.507 113.220  0.00  0.00     0.210 HD
ATOM    106  H   SGN d 302     105.164  26.575 112.398  0.00  0.00     0.231 HD
ATOM    107  H   SGN d 302     104.850  28.544 111.163  0.00  0.00     0.231 HD
ATOM    108  H   SGN d 302     108.138  28.005 113.274  0.00  0.00     0.231 HD
ATOM    109  S   UAP d 301      96.936  27.106 116.421  0.00  0.00     0.252 S 
ATOM    110  O2S UAP d 301      97.176  27.801 117.662  0.00  0.00    -0.572 OA
ATOM    111  O1S UAP d 301      95.554  27.086 116.136  0.00  0.00    -0.572 OA
ATOM    112  C4  UAP d 301      98.655  30.935 114.171  0.00  0.00     0.077 C 
ATOM    113  O3S UAP d 301      97.489  25.787 116.422  0.00  0.00    -0.572 OA
ATOM    114  O3  UAP d 301      99.018  30.808 116.556  0.00  0.00    -0.393 OA
ATOM    115  C3  UAP d 301      98.370  30.176 115.497  0.00  0.00     0.156 C 
ATOM    116  O5  UAP d 301      99.988  28.825 113.381  0.00  0.00    -0.343 OA
ATOM    117  C5  UAP d 301      99.437  30.109 113.148  0.00  0.00     0.228 C 
ATOM    118  C6  UAP d 301      99.491  30.709 111.748  0.00  0.00     0.203 C 
ATOM    119  C2  UAP d 301      98.807  28.703 115.513  0.00  0.00     0.228 C 
ATOM    120  C1  UAP d 301     100.021  28.298 114.703  0.00  0.00     0.294 C 
ATOM    121  O2  UAP d 301      97.716  27.947 115.111  0.00  0.00    -0.244 OA
ATOM    122  O62 UAP d 301     100.047  30.013 110.871  0.00  0.00    -0.646 OA
ATOM    123  O61 UAP d 301      98.970  31.820 111.522  0.00  0.00    -0.646 OA
ATOM    124  H   UAP d 301      98.765  31.744 116.577  0.00  0.00     0.210 HD
ENDROOT
TORSDOF 50
