REMARK  0 active torsions:
REMARK  status: ('A' for Active; 'I' for Inactive)
REMARK       I    between atoms: C2_2  and  N_35 
REMARK       I    between atoms: C1_4  and  O4_13 
REMARK       I    between atoms: S2_5  and  O6_61 
REMARK       I    between atoms: C6_6  and  C5_94 
REMARK       I    between atoms: S1_7  and  N_60 
REMARK       I    between atoms: S1_7  and  O1S_21 
REMARK       I    between atoms: S1_7  and  O2S_16 
REMARK       I    between atoms: S1_7  and  O3S_71 
REMARK       I    between atoms: S1_8  and  N_82 
REMARK       I    between atoms: S1_8  and  O1S_47 
REMARK       I    between atoms: S1_8  and  O2S_78 
REMARK       I    between atoms: S1_8  and  O3S_80 
REMARK       I    between atoms: C2_10  and  O2_76 
REMARK       I    between atoms: O4_13  and  C4_24 
REMARK       I    between atoms: O3_14  and  C3_41 
REMARK       I    between atoms: C4_15  and  O4_72 
REMARK       I    between atoms: C5_17  and  C6_40 
REMARK       I    between atoms: C6_19  and  C5_102 
REMARK       I    between atoms: C3_20  and  O3_104 
REMARK       I    between atoms: C2_22  and  N_60 
REMARK       I    between atoms: C1_27  and  O4_62 
REMARK       I    between atoms: O3_29  and  C3_74 
REMARK       I    between atoms: C4_30  and  O4_31 
REMARK       I    between atoms: O4_31  and  C1_105 
REMARK       I    between atoms: C5_32  and  C6_43 
REMARK       I    between atoms: C4_33  and  O4_62 
REMARK       I    between atoms: S_34  and  O2_70 
REMARK       I    between atoms: N_35  and  S1_99 
REMARK       I    between atoms: O3_36  and  C3_54 
REMARK       I    between atoms: C1_37  and  O1_42 
REMARK       I    between atoms: C4_39  and  O4_57 
REMARK       I    between atoms: C6_43  and  O6_53 
REMARK       I    between atoms: C6_44  and  C5_84 
REMARK       I    between atoms: C6_44  and  O6_61 
REMARK       I    between atoms: O2S_46  and  S1_99 
REMARK       I    between atoms: O6_48  and  C6_79 
REMARK       I    between atoms: O6_48  and  S2_83 
REMARK       I    between atoms: C4_49  and  O4_52 
REMARK       I    between atoms: C3_50  and  O3_96 
REMARK       I    between atoms: C3_51  and  O3_81 
REMARK       I    between atoms: O4_52  and  C1_65 
REMARK       I    between atoms: O6_53  and  S2_67 
REMARK       I    between atoms: C2_55  and  O2_70 
REMARK       I    between atoms: C1_58  and  O4_72 
REMARK       I    between atoms: S_64  and  O2_85 
REMARK       I    between atoms: O3S_66  and  S1_99 
REMARK       I    between atoms: O1S_69  and  S1_99 
REMARK       I    between atoms: O2_76  and  S_97 
REMARK       I    between atoms: C6_79  and  C5_95 
REMARK       I    between atoms: N_82  and  C2_100 
REMARK       I    between atoms: O2_85  and  C2_87 
ROOT
ATOM      1  O6S SGN d 301     -29.297  45.170  11.447  0.00  0.00    -0.572 OA
ATOM      2  S1  SGN d 301     -32.819  50.559  16.988  0.00  0.00     0.156 S 
ATOM      3  C4  SGN d 301     -30.887  50.280  12.311  0.00  0.00     0.186 C 
ATOM      4  O5S SGN d 301     -27.527  46.620  12.235  0.00  0.00    -0.572 OA
ATOM      5  C5  SGN d 301     -31.628  48.981  11.881  0.00  0.00     0.181 C 
ATOM      6  O3  SGN d 301     -31.267  52.276  13.620  0.00  0.00    -0.391 OA
ATOM      7  C1  SGN d 301     -32.958  48.997  13.859  0.00  0.00     0.278 C 
ATOM      8  O5  SGN d 301     -32.094  48.252  13.019  0.00  0.00    -0.350 OA
ATOM      9  O1  SGN d 301     -34.132  49.414  13.121  0.00  0.00    -0.369 OA
ATOM     10  C6  SGN d 301     -30.811  47.992  11.052  0.00  0.00     0.227 C 
ATOM     11  O1S SGN d 301     -31.737  49.599  17.059  0.00  0.00    -0.296 OA
ATOM     12  O6  SGN d 301     -29.745  47.503  11.829  0.00  0.00    -0.254 OA
ATOM     13  C3  SGN d 301     -31.882  51.094  13.181  0.00  0.00     0.173 C 
ATOM     14  O4S SGN d 301     -28.348  46.829   9.981  0.00  0.00    -0.572 OA
ATOM     15  S2  SGN d 301     -28.662  46.467  11.349  0.00  0.00     0.251 S 
ATOM     16  O4  SGN d 301     -30.536  51.013  11.159  0.00  0.00    -0.348 OA
ATOM     17  O2S SGN d 301     -32.484  51.801  17.640  0.00  0.00    -0.296 OA
ATOM     18  O3S SGN d 301     -34.059  49.991  17.460  0.00  0.00    -0.296 OA
ATOM     19  N   SGN d 301     -33.066  50.920  15.389  0.00  0.00    -0.210 NA
ATOM     20  C2  SGN d 301     -32.239  50.227  14.390  0.00  0.00     0.157 C 
ATOM     21  H   SGN d 301     -31.040  52.826  12.854  0.00  0.00     0.210 HD
ATOM     22  H   SGN d 301     -33.864  49.977  12.378  0.00  0.00     0.212 HD
ATOM     23  H   SGN d 301     -30.919  50.009  16.736  0.00  0.00     0.231 HD
ATOM     24  H   SGN d 301     -31.645  52.136  17.286  0.00  0.00     0.231 HD
ATOM     25  H   SGN d 301     -34.234  49.161  16.990  0.00  0.00     0.231 HD
ATOM     26  H   SGN d 301     -32.904  51.921  15.275  0.00  0.00     0.140 HD
ATOM     27  C2  SGN d 303     -25.579  55.584   9.836  0.00  0.00     0.157 C 
ATOM     28  S2  SGN d 303     -26.643  59.464  13.842  0.00  0.00     0.251 S 
ATOM     29  O3  SGN d 303     -23.357  55.165  10.611  0.00  0.00    -0.391 OA
ATOM     30  C1  SGN d 303     -27.032  55.610  10.259  0.00  0.00     0.282 C 
ATOM     31  O6S SGN d 303     -27.901  59.641  13.205  0.00  0.00    -0.572 OA
ATOM     32  N   SGN d 303     -25.418  54.745   8.661  0.00  0.00    -0.210 NA
ATOM     33  C3  SGN d 303     -24.716  55.068  10.980  0.00  0.00     0.173 C 
ATOM     34  C6  SGN d 303     -26.793  56.839  13.703  0.00  0.00     0.227 C 
ATOM     35  O5S SGN d 303     -25.607  60.334  13.381  0.00  0.00    -0.572 OA
ATOM     36  O2S SGN d 303     -24.939  56.125   6.682  0.00  0.00    -0.296 OA
ATOM     37  C4  SGN d 303     -24.935  55.898  12.250  0.00  0.00     0.186 C 
ATOM     38  O4  SGN d 303     -24.301  55.264  13.326  0.00  0.00    -0.348 OA
ATOM     39  O6  SGN d 303     -26.166  58.058  13.448  0.00  0.00    -0.254 OA
ATOM     40  O3S SGN d 303     -26.123  54.060   6.441  0.00  0.00    -0.296 OA
ATOM     41  O1S SGN d 303     -27.188  55.969   7.408  0.00  0.00    -0.296 OA
ATOM     42  C5  SGN d 303     -26.432  55.936  12.537  0.00  0.00     0.181 C 
ATOM     43  O4S SGN d 303     -26.775  59.481  15.259  0.00  0.00    -0.572 OA
ATOM     44  O5  SGN d 303     -27.155  56.416  11.410  0.00  0.00    -0.349 OA
ATOM     45  S1  SGN d 303     -25.956  55.261   7.204  0.00  0.00     0.156 S 
ATOM     46  H   SGN d 303     -23.202  54.644   9.807  0.00  0.00     0.210 HD
ATOM     47  H   SGN d 303     -25.899  53.867   8.858  0.00  0.00     0.140 HD
ATOM     48  H   SGN d 303     -24.120  55.621   6.555  0.00  0.00     0.231 HD
ATOM     49  H   SGN d 303     -25.264  53.623   6.333  0.00  0.00     0.231 HD
ATOM     50  H   SGN d 303     -27.018  56.770   7.928  0.00  0.00     0.231 HD
ATOM     51  O5  SGN d 305     -18.158  55.052  14.809  0.00  0.00    -0.349 OA
ATOM     52  S1  SGN d 305     -19.511  55.449  19.073  0.00  0.00     0.156 S 
ATOM     53  O6S SGN d 305     -15.587  53.795  11.541  0.00  0.00    -0.572 OA
ATOM     54  O4  SGN d 305     -16.421  58.115  14.488  0.00  0.00    -0.348 OA
ATOM     55  O2S SGN d 305     -19.314  56.216  20.232  0.00  0.00    -0.296 OA
ATOM     56  O1S SGN d 305     -18.480  54.480  18.901  0.00  0.00    -0.296 OA
ATOM     57  C2  SGN d 305     -18.489  56.277  16.828  0.00  0.00     0.157 C 
ATOM     58  C4  SGN d 305     -16.972  57.045  15.165  0.00  0.00     0.186 C 
ATOM     59  O6  SGN d 305     -15.769  55.066  13.539  0.00  0.00    -0.254 OA
ATOM     60  C3  SGN d 305     -18.041  57.512  16.120  0.00  0.00     0.173 C 
ATOM     61  N   SGN d 305     -19.427  56.541  17.879  0.00  0.00    -0.210 NA
ATOM     62  O3S SGN d 305     -20.791  54.856  18.979  0.00  0.00    -0.296 OA
ATOM     63  O4S SGN d 305     -13.769  55.218  12.318  0.00  0.00    -0.572 OA
ATOM     64  C6  SGN d 305     -16.862  55.732  13.025  0.00  0.00     0.227 C 
ATOM     65  O3  SGN d 305     -17.512  58.400  17.046  0.00  0.00    -0.391 OA
ATOM     66  S2  SGN d 305     -14.791  54.264  12.670  0.00  0.00     0.251 S 
ATOM     67  C5  SGN d 305     -17.689  56.188  14.173  0.00  0.00     0.181 C 
ATOM     68  O5S SGN d 305     -14.312  53.176  13.490  0.00  0.00    -0.572 OA
ATOM     69  C1  SGN d 305     -19.101  55.326  15.824  0.00  0.00     0.282 C 
ATOM     70  H   SGN d 305     -18.418  56.588  20.225  0.00  0.00     0.231 HD
ATOM     71  H   SGN d 305     -17.615  54.913  18.970  0.00  0.00     0.231 HD
ATOM     72  H   SGN d 305     -19.178  57.437  18.297  0.00  0.00     0.140 HD
ATOM     73  H   SGN d 305     -20.851  54.345  18.157  0.00  0.00     0.231 HD
ATOM     74  H   SGN d 305     -16.786  57.972  17.527  0.00  0.00     0.210 HD
ATOM     75  C1  IDS d 306     -15.107  57.912  14.029  0.00  0.00     0.294 C 
ATOM     76  C6  IDS d 306     -13.720  59.734  16.868  0.00  0.00     0.206 C 
ATOM     77  O61 IDS d 306     -13.559  58.768  17.608  0.00  0.00    -0.646 OA
ATOM     78  O2S IDS d 306     -12.485  59.941  10.889  0.00  0.00    -0.572 OA
ATOM     79  O5  IDS d 306     -14.167  58.277  15.012  0.00  0.00    -0.340 OA
ATOM     80  S   IDS d 306     -13.371  58.808  10.703  0.00  0.00     0.252 S 
ATOM     81  C4  IDS d 306     -14.098  60.625  14.435  0.00  0.00     0.189 C 
ATOM     82  C3  IDS d 306     -14.723  60.276  13.035  0.00  0.00     0.185 C 
ATOM     83  C2  IDS d 306     -14.906  58.758  12.791  0.00  0.00     0.231 C 
ATOM     84  O4  IDS d 306     -12.690  60.674  14.271  0.00  0.00    -0.390 OA
ATOM     85  O1S IDS d 306     -14.637  59.182  10.094  0.00  0.00    -0.572 OA
ATOM     86  O62 IDS d 306     -13.334  60.832  17.252  0.00  0.00    -0.646 OA
ATOM     87  O2  IDS d 306     -13.771  58.332  12.117  0.00  0.00    -0.244 OA
ATOM     88  O3S IDS d 306     -12.722  57.676  10.075  0.00  0.00    -0.572 OA
ATOM     89  C5  IDS d 306     -14.412  59.563  15.514  0.00  0.00     0.256 C 
ATOM     90  O3  IDS d 306     -16.000  60.882  12.887  0.00  0.00    -0.390 OA
ATOM     91  H   IDS d 306     -12.369  59.808  13.974  0.00  0.00     0.210 HD
ATOM     92  H   IDS d 306     -16.609  60.517  13.548  0.00  0.00     0.210 HD
ATOM     93  C2  IDS d 304     -23.255  55.332  15.469  0.00  0.00     0.231 C 
ATOM     94  O61 IDS d 304     -20.186  57.380  12.300  0.00  0.00    -0.646 OA
ATOM     95  C5  IDS d 304     -21.492  55.619  13.243  0.00  0.00     0.257 C 
ATOM     96  C3  IDS d 304     -22.063  54.358  15.360  0.00  0.00     0.185 C 
ATOM     97  C4  IDS d 304     -20.953  54.943  14.511  0.00  0.00     0.195 C 
ATOM     98  O4  IDS d 304     -20.271  55.869  15.293  0.00  0.00    -0.348 OA
ATOM     99  C6  IDS d 304     -20.438  56.205  12.318  0.00  0.00     0.206 C 
ATOM    100  O3S IDS d 304     -23.566  58.397  17.109  0.00  0.00    -0.572 OA
ATOM    101  C1  IDS d 304     -23.591  56.093  14.186  0.00  0.00     0.294 C 
ATOM    102  O2  IDS d 304     -22.942  56.260  16.469  0.00  0.00    -0.244 OA
ATOM    103  O2S IDS d 304     -23.804  56.642  18.665  0.00  0.00    -0.572 OA
ATOM    104  O62 IDS d 304     -19.804  55.514  11.583  0.00  0.00    -0.646 OA
ATOM    105  O1S IDS d 304     -25.225  56.763  16.777  0.00  0.00    -0.572 OA
ATOM    106  S   IDS d 304     -23.945  57.059  17.308  0.00  0.00     0.252 S 
ATOM    107  O5  IDS d 304     -22.414  56.595  13.577  0.00  0.00    -0.340 OA
ATOM    108  O3  IDS d 304     -22.491  53.154  14.766  0.00  0.00    -0.390 OA
ATOM    109  H   IDS d 304     -22.824  53.335  13.873  0.00  0.00     0.210 HD
ATOM    110  C6  IDS d 302     -29.284  54.585  12.839  0.00  0.00     0.206 C 
ATOM    111  O3S IDS d 302     -26.948  49.374   9.110  0.00  0.00    -0.572 OA
ATOM    112  O3  IDS d 302     -30.672  53.167   9.153  0.00  0.00    -0.390 OA
ATOM    113  C4  IDS d 302     -28.906  54.140  10.376  0.00  0.00     0.195 C 
ATOM    114  C1  IDS d 302     -29.181  51.323  11.055  0.00  0.00     0.294 C 
ATOM    115  O4  IDS d 302     -27.507  54.294  10.460  0.00  0.00    -0.348 OA
ATOM    116  S   IDS d 302     -26.743  50.669   8.569  0.00  0.00     0.252 S 
ATOM    117  C3  IDS d 302     -29.276  53.144   9.294  0.00  0.00     0.185 C 
ATOM    118  O61 IDS d 302     -28.700  54.264  13.873  0.00  0.00    -0.646 OA
ATOM    119  O2  IDS d 302     -27.506  51.637   9.476  0.00  0.00    -0.244 OA
ATOM    120  O62 IDS d 302     -29.767  55.722  12.756  0.00  0.00    -0.646 OA
ATOM    121  C2  IDS d 302     -28.860  51.716   9.644  0.00  0.00     0.231 C 
ATOM    122  O2S IDS d 302     -25.380  51.074   8.630  0.00  0.00    -0.572 OA
ATOM    123  O1S IDS d 302     -27.336  50.827   7.283  0.00  0.00    -0.572 OA
ATOM    124  C5  IDS d 302     -29.418  53.605  11.676  0.00  0.00     0.257 C 
ATOM    125  O5  IDS d 302     -28.803  52.357  11.947  0.00  0.00    -0.340 OA
ATOM    126  H   IDS d 302     -30.960  54.066   8.930  0.00  0.00     0.210 HD
ENDROOT
TORSDOF 51
