REMARK  0 active torsions:
REMARK  status: ('A' for Active; 'I' for Inactive)
REMARK       I    between atoms: C6_2  and  C5_55 
REMARK       I    between atoms: C5_4  and  C6_36 
REMARK       I    between atoms: O3_5  and  C1_39 
REMARK       I    between atoms: O3_5  and  C3_60 
REMARK       I    between atoms: S_6  and  O4_43 
REMARK       I    between atoms: C4_7  and  O4_43 
REMARK       I    between atoms: C7_8  and  N_59 
REMARK       I    between atoms: O3_9  and  C1_16 
REMARK       I    between atoms: O3_9  and  C3_42 
REMARK       I    between atoms: O6_10  and  C6_36 
REMARK       I    between atoms: C2_14  and  O2_19 
REMARK       I    between atoms: C6_20  and  C5_53 
REMARK       I    between atoms: C2_22  and  N_59 
REMARK       I    between atoms: O3_23  and  C3_31 
REMARK       I    between atoms: N_24  and  C2_28 
REMARK       I    between atoms: N_24  and  C7_40 
REMARK       I    between atoms: O1_25  and  C1_32 
REMARK       I    between atoms: S_26  and  O4_57 
REMARK       I    between atoms: C6_27  and  C5_51 
REMARK       I    between atoms: C6_27  and  O6_50 
REMARK       I    between atoms: O1_29  and  C1_47 
REMARK       I    between atoms: O1_29  and  C4_34 
REMARK       I    between atoms: C3_35  and  O3_44 
REMARK       I    between atoms: C2_37  and  O2_49 
REMARK       I    between atoms: C4_45  and  O4_57 
ROOT
ATOM      1  OSC ASG d 810       1.324  35.418  77.085  0.00  0.00    -0.572 OA
ATOM      2  O7  ASG d 810      -0.856  39.616  73.797  0.00  0.00    -0.274 OA
ATOM      3  O3  ASG d 810      -2.488  37.996  76.170  0.00  0.00    -0.348 OA
ATOM      4  O5  ASG d 810       0.106  40.246  78.523  0.00  0.00    -0.349 OA
ATOM      5  N   ASG d 810      -2.008  40.551  75.486  0.00  0.00    -0.349 N 
ATOM      6  S   ASG d 810      -0.158  35.811  77.549  0.00  0.00     0.252 S 
ATOM      7  C6  ASG d 810       0.414  38.555  80.181  0.00  0.00     0.199 C 
ATOM      8  C2  ASG d 810      -1.190  39.989  76.529  0.00  0.00     0.171 C 
ATOM      9  O1  ASG d 810       0.156  41.954  76.981  0.00  0.00    -0.348 OA
ATOM     10  OSA ASG d 810      -0.264  35.520  78.972  0.00  0.00    -0.572 OA
ATOM     11  C7  ASG d 810      -1.868  40.193  74.192  0.00  0.00     0.214 C 
ATOM     12  C3  ASG d 810      -2.056  38.928  77.193  0.00  0.00     0.185 C 
ATOM     13  C4  ASG d 810      -1.217  38.198  78.235  0.00  0.00     0.207 C 
ATOM     14  C1  ASG d 810      -0.703  40.985  77.597  0.00  0.00     0.286 C 
ATOM     15  O6  ASG d 810       1.079  39.662  80.771  0.00  0.00    -0.398 OA
ATOM     16  C5  ASG d 810      -0.580  39.198  79.220  0.00  0.00     0.181 C 
ATOM     17  C8  ASG d 810      -3.064  40.567  73.326  0.00  0.00     0.117 C 
ATOM     18  O4  ASG d 810      -0.234  37.447  77.490  0.00  0.00    -0.246 OA
ATOM     19  OSB ASG d 810      -1.143  35.143  76.699  0.00  0.00    -0.572 OA
ATOM     20  H   ASG d 810      -2.692  41.218  75.724  0.00  0.00     0.163 HD
ATOM     21  H   ASG d 810       1.489  40.201  80.076  0.00  0.00     0.209 HD
ATOM     22  C6  GAD d 809      -6.620  37.950  78.354  0.00  0.00     0.233 C 
ATOM     23  O5  GAD d 809      -4.528  37.724  77.118  0.00  0.00    -0.311 OA
ATOM     24  C1  GAD d 809      -3.881  38.001  75.866  0.00  0.00     0.298 C 
ATOM     25  C3  GAD d 809      -5.759  36.922  74.559  0.00  0.00     0.177 C 
ATOM     26  C2  GAD d 809      -4.232  37.028  74.670  0.00  0.00     0.206 C 
ATOM     27  O3  GAD d 809      -6.177  35.590  74.158  0.00  0.00    -0.389 OA
ATOM     28  C4  GAD d 809      -6.506  37.241  75.879  0.00  0.00     0.051 C 
ATOM     29  O2  GAD d 809      -3.607  37.272  73.324  0.00  0.00    -0.388 OA
ATOM     30  O6A GAD d 809      -7.791  38.393  78.240  0.00  0.00    -0.642 OA
ATOM     31  C5  GAD d 809      -5.947  37.604  77.070  0.00  0.00     0.147 C 
ATOM     32  O6B GAD d 809      -5.939  37.885  79.450  0.00  0.00    -0.642 OA
ATOM     33  H   GAD d 809      -5.930  34.953  74.847  0.00  0.00     0.210 HD
ATOM     34  H   GAD d 809      -3.951  38.099  72.953  0.00  0.00     0.210 HD
ATOM     35  C5  ASG d 812       4.496  48.575  75.477  0.00  0.00     0.181 C 
ATOM     36  O3  ASG d 812       3.191  46.237  78.146  0.00  0.00    -0.348 OA
ATOM     37  S   ASG d 812       1.466  49.696  76.794  0.00  0.00     0.252 S 
ATOM     38  C4  ASG d 812       3.415  47.863  76.313  0.00  0.00     0.207 C 
ATOM     39  C7  ASG d 812       6.239  46.534  79.983  0.00  0.00     0.214 C 
ATOM     40  O6  ASG d 812       5.060  49.915  73.578  0.00  0.00    -0.398 OA
ATOM     41  OSC ASG d 812       2.052  51.121  76.294  0.00  0.00    -0.572 OA
ATOM     42  O7  ASG d 812       6.165  47.619  80.625  0.00  0.00    -0.274 OA
ATOM     43  OSA ASG d 812       0.735  49.094  75.720  0.00  0.00    -0.572 OA
ATOM     44  C2  ASG d 812       5.141  47.516  78.013  0.00  0.00     0.171 C 
ATOM     45  O1  ASG d 812       7.004  48.999  78.021  0.00  0.00    -0.369 OA
ATOM     46  C1  ASG d 812       6.109  48.318  77.144  0.00  0.00     0.282 C 
ATOM     47  O5  ASG d 812       5.395  49.269  76.375  0.00  0.00    -0.349 OA
ATOM     48  C6  ASG d 812       3.970  49.517  74.410  0.00  0.00     0.199 C 
ATOM     49  C8  ASG d 812       6.726  45.185  80.504  0.00  0.00     0.117 C 
ATOM     50  OSB ASG d 812       0.587  49.891  77.897  0.00  0.00    -0.572 OA
ATOM     51  O4  ASG d 812       2.732  48.746  77.213  0.00  0.00    -0.246 OA
ATOM     52  N   ASG d 812       5.890  46.486  78.684  0.00  0.00    -0.349 N 
ATOM     53  C3  ASG d 812       4.086  46.817  77.181  0.00  0.00     0.185 C 
ATOM     54  H   ASG d 812       4.738  50.518  72.890  0.00  0.00     0.209 HD
ATOM     55  H   ASG d 812       7.495  48.350  78.549  0.00  0.00     0.212 HD
ATOM     56  H   ASG d 812       6.164  45.698  78.161  0.00  0.00     0.163 HD
ATOM     57  O6A GCT d 811      -0.160  46.375  76.521  0.00  0.00    -0.646 OA
ATOM     58  O6B GCT d 811      -1.415  44.859  77.543  0.00  0.00    -0.646 OA
ATOM     59  C2  GCT d 811       2.628  44.120  79.132  0.00  0.00     0.204 C 
ATOM     60  O2  GCT d 811       3.879  43.903  79.713  0.00  0.00    -0.388 OA
ATOM     61  C6  GCT d 811      -0.344  45.221  77.011  0.00  0.00     0.206 C 
ATOM     62  O3  GCT d 811       1.780  41.939  79.868  0.00  0.00    -0.390 OA
ATOM     63  C3  GCT d 811       2.041  42.781  78.756  0.00  0.00     0.183 C 
ATOM     64  C4  GCT d 811       0.727  43.108  78.044  0.00  0.00     0.195 C 
ATOM     65  C1  GCT d 811       2.957  44.864  77.843  0.00  0.00     0.292 C 
ATOM     66  O5  GCT d 811       2.059  44.722  76.755  0.00  0.00    -0.340 OA
ATOM     67  C5  GCT d 811       0.768  44.170  76.939  0.00  0.00     0.257 C 
ATOM     68  H   GCT d 811       4.448  43.428  79.087  0.00  0.00     0.210 HD
ATOM     69  H   GCT d 811       2.613  41.732  80.319  0.00  0.00     0.210 HD
ENDROOT
TORSDOF 23
