REMARK  0 active torsions:
REMARK  status: ('A' for Active; 'I' for Inactive)
REMARK       I    between atoms: C6_1  and  C5_8 
REMARK       I    between atoms: C6_1  and  O6_57 
REMARK       I    between atoms: O4_2  and  C4_49 
REMARK       I    between atoms: O6_3  and  C6_7 
REMARK       I    between atoms: O6_3  and  S2_58 
REMARK       I    between atoms: S_4  and  O2_6 
REMARK       I    between atoms: O3_5  and  C3_81 
REMARK       I    between atoms: O2_6  and  C2_11 
REMARK       I    between atoms: C6_7  and  C5_54 
REMARK       I    between atoms: O4_9  and  C4_32 
REMARK       I    between atoms: O4_9  and  C1_39 
REMARK       I    between atoms: O3_12  and  C3_18 
REMARK       I    between atoms: N_13  and  C2_52 
REMARK       I    between atoms: N_13  and  S1_45 
REMARK       I    between atoms: O3_17  and  C3_83 
REMARK       I    between atoms: C4_20  and  O4_44 
REMARK       I    between atoms: N_21  and  C2_66 
REMARK       I    between atoms: N_21  and  S1_53 
REMARK       I    between atoms: O3_22  and  C3_65 
REMARK       I    between atoms: C4_23  and  O4_74 
REMARK       I    between atoms: C1_25  and  O1_72 
REMARK       I    between atoms: C2_28  and  O2_69 
REMARK       I    between atoms: C4_33  and  O4_61 
REMARK       I    between atoms: O2S_34  and  S1_45 
REMARK       I    between atoms: C6_37  and  C5_47 
REMARK       I    between atoms: O2_38  and  C2_77 
REMARK       I    between atoms: O2_38  and  S_50 
REMARK       I    between atoms: O3S_40  and  S1_53 
REMARK       I    between atoms: O1S_42  and  S1_45 
REMARK       I    between atoms: O1S_43  and  S1_53 
REMARK       I    between atoms: O4_44  and  C1_46 
REMARK       I    between atoms: S1_45  and  O3S_60 
REMARK       I    between atoms: C6_48  and  C5_84 
REMARK       I    between atoms: C6_51  and  C5_87 
REMARK       I    between atoms: S1_53  and  O2S_55 
REMARK       I    between atoms: C1_56  and  O4_74 
REMARK       I    between atoms: O6_57  and  S2_82 
REMARK       I    between atoms: O4_61  and  C1_70 
REMARK       I    between atoms: C3_63  and  O3_79 
REMARK       I    between atoms: O2_69  and  S_76 
ROOT
ATOM      1  C6  SGN d 503     -17.635  55.413 175.851  0.00  0.00     0.227 C 
ATOM      2  C5  SGN d 503     -18.622  55.130 174.751  0.00  0.00     0.181 C 
ATOM      3  O4  SGN d 503     -18.093  52.835 174.396  0.00  0.00    -0.348 OA
ATOM      4  N   SGN d 503     -20.411  55.309 170.983  0.00  0.00    -0.210 NA
ATOM      5  O6S SGN d 503     -15.969  58.117 175.578  0.00  0.00    -0.572 OA
ATOM      6  O3  SGN d 503     -18.616  53.107 171.608  0.00  0.00    -0.391 OA
ATOM      7  O4S SGN d 503     -15.407  56.640 177.281  0.00  0.00    -0.572 OA
ATOM      8  O5S SGN d 503     -14.127  56.575 175.264  0.00  0.00    -0.572 OA
ATOM      9  C4  SGN d 503     -18.163  54.061 173.744  0.00  0.00     0.186 C 
ATOM     10  O2S SGN d 503     -18.913  56.330 169.255  0.00  0.00    -0.296 OA
ATOM     11  O1S SGN d 503     -20.554  57.695 170.386  0.00  0.00    -0.296 OA
ATOM     12  S1  SGN d 503     -20.273  56.404 169.787  0.00  0.00     0.156 S 
ATOM     13  C1  SGN d 503     -19.806  56.333 173.131  0.00  0.00     0.282 C 
ATOM     14  C2  SGN d 503     -19.410  55.333 172.035  0.00  0.00     0.157 C 
ATOM     15  O6  SGN d 503     -16.440  55.857 175.246  0.00  0.00    -0.254 OA
ATOM     16  O5  SGN d 503     -18.811  56.360 174.124  0.00  0.00    -0.349 OA
ATOM     17  O3S SGN d 503     -21.292  55.997 168.846  0.00  0.00    -0.296 OA
ATOM     18  C3  SGN d 503     -19.171  53.946 172.603  0.00  0.00     0.173 C 
ATOM     19  S2  SGN d 503     -15.425  56.849 175.873  0.00  0.00     0.251 S 
ATOM     20  H   SGN d 503     -21.320  55.451 171.423  0.00  0.00     0.140 HD
ATOM     21  H   SGN d 503     -18.466  52.223 171.977  0.00  0.00     0.210 HD
ATOM     22  H   SGN d 503     -18.284  56.616 169.936  0.00  0.00     0.231 HD
ATOM     23  H   SGN d 503     -19.845  57.924 171.007  0.00  0.00     0.231 HD
ATOM     24  H   SGN d 503     -21.061  55.132 168.474  0.00  0.00     0.231 HD
ATOM     25  O4  IDS d 506      -7.066  48.210 171.774  0.00  0.00    -0.390 OA
ATOM     26  S   IDS d 506      -9.644  48.220 168.747  0.00  0.00     0.252 S 
ATOM     27  O3  IDS d 506      -8.835  51.324 171.732  0.00  0.00    -0.390 OA
ATOM     28  O2  IDS d 506      -9.807  48.178 170.327  0.00  0.00    -0.244 OA
ATOM     29  C2  IDS d 506      -9.989  49.261 171.218  0.00  0.00     0.231 C 
ATOM     30  O62 IDS d 506      -6.593  48.525 175.069  0.00  0.00    -0.646 OA
ATOM     31  O61 IDS d 506      -8.165  47.157 175.264  0.00  0.00    -0.646 OA
ATOM     32  O1S IDS d 506      -8.616  49.185 168.505  0.00  0.00    -0.572 OA
ATOM     33  C6  IDS d 506      -7.691  48.138 174.708  0.00  0.00     0.206 C 
ATOM     34  C5  IDS d 506      -8.475  48.845 173.618  0.00  0.00     0.256 C 
ATOM     35  C4  IDS d 506      -7.679  49.315 172.396  0.00  0.00     0.189 C 
ATOM     36  O2S IDS d 506      -9.241  46.915 168.305  0.00  0.00    -0.572 OA
ATOM     37  C1  IDS d 506     -10.548  48.756 172.556  0.00  0.00     0.294 C 
ATOM     38  O5  IDS d 506      -9.535  48.041 173.217  0.00  0.00    -0.340 OA
ATOM     39  C3  IDS d 506      -8.612  49.968 171.354  0.00  0.00     0.185 C 
ATOM     40  O3S IDS d 506     -10.936  48.623 168.235  0.00  0.00    -0.572 OA
ATOM     41  H   IDS d 506      -6.470  47.774 172.403  0.00  0.00     0.210 HD
ATOM     42  H   IDS d 506      -9.421  51.748 171.085  0.00  0.00     0.210 HD
ATOM     43  O6  SGN d 505     -13.848  45.830 171.540  0.00  0.00    -0.254 OA
ATOM     44  C6  SGN d 505     -14.085  47.183 171.350  0.00  0.00     0.227 C 
ATOM     45  O5S SGN d 505     -15.133  43.910 171.142  0.00  0.00    -0.572 OA
ATOM     46  O5  SGN d 505     -14.897  47.314 173.511  0.00  0.00    -0.349 OA
ATOM     47  O3  SGN d 505     -11.243  47.970 175.300  0.00  0.00    -0.391 OA
ATOM     48  O4S SGN d 505     -12.813  44.032 170.436  0.00  0.00    -0.572 OA
ATOM     49  N   SGN d 505     -13.724  48.284 176.853  0.00  0.00    -0.210 NA
ATOM     50  C4  SGN d 505     -12.543  47.499 173.279  0.00  0.00     0.186 C 
ATOM     51  O3S SGN d 505     -14.588  48.135 179.186  0.00  0.00    -0.296 OA
ATOM     52  O1S SGN d 505     -15.677  46.825 177.508  0.00  0.00    -0.296 OA
ATOM     53  S1  SGN d 505     -14.423  47.322 178.034  0.00  0.00     0.156 S 
ATOM     54  C5  SGN d 505     -13.882  47.808 172.692  0.00  0.00     0.181 C 
ATOM     55  O2S SGN d 505     -13.466  46.266 178.268  0.00  0.00    -0.296 OA
ATOM     56  C1  SGN d 505     -14.952  47.923 174.770  0.00  0.00     0.282 C 
ATOM     57  S2  SGN d 505     -14.088  44.704 170.545  0.00  0.00     0.251 S 
ATOM     58  O4  SGN d 505     -11.597  47.885 172.304  0.00  0.00    -0.348 OA
ATOM     59  C2  SGN d 505     -13.629  47.726 175.484  0.00  0.00     0.157 C 
ATOM     60  C3  SGN d 505     -12.463  48.264 174.632  0.00  0.00     0.173 C 
ATOM     61  O6S SGN d 505     -14.505  45.325 169.295  0.00  0.00    -0.572 OA
ATOM     62  H   SGN d 505     -10.498  48.303 174.775  0.00  0.00     0.210 HD
ATOM     63  H   SGN d 505     -14.271  49.143 176.796  0.00  0.00     0.140 HD
ATOM     64  H   SGN d 505     -15.235  48.833 178.999  0.00  0.00     0.231 HD
ATOM     65  H   SGN d 505     -16.285  47.567 177.368  0.00  0.00     0.231 HD
ATOM     66  H   SGN d 505     -12.645  46.645 178.619  0.00  0.00     0.231 HD
ATOM     67  O3  IDS d 504     -18.723  50.079 175.335  0.00  0.00    -0.390 OA
ATOM     68  C3  IDS d 504     -17.325  50.075 175.596  0.00  0.00     0.185 C 
ATOM     69  C4  IDS d 504     -16.640  49.526 174.354  0.00  0.00     0.195 C 
ATOM     70  O2S IDS d 504     -13.779  52.230 177.979  0.00  0.00    -0.572 OA
ATOM     71  O3S IDS d 504     -16.021  53.062 178.192  0.00  0.00    -0.572 OA
ATOM     72  O2  IDS d 504     -15.548  51.517 176.522  0.00  0.00    -0.244 OA
ATOM     73  C1  IDS d 504     -16.791  52.425 174.700  0.00  0.00     0.294 C 
ATOM     74  O62 IDS d 504     -16.914  49.358 171.127  0.00  0.00    -0.646 OA
ATOM     75  S   IDS d 504     -15.184  51.946 177.955  0.00  0.00     0.252 S 
ATOM     76  C6  IDS d 504     -16.236  50.081 171.860  0.00  0.00     0.206 C 
ATOM     77  O5  IDS d 504     -16.155  51.761 173.603  0.00  0.00    -0.340 OA
ATOM     78  O4  IDS d 504     -15.271  49.282 174.642  0.00  0.00    -0.348 OA
ATOM     79  O1S IDS d 504     -15.510  50.852 178.795  0.00  0.00    -0.572 OA
ATOM     80  C2  IDS d 504     -16.845  51.540 175.929  0.00  0.00     0.231 C 
ATOM     81  O61 IDS d 504     -15.119  50.402 171.475  0.00  0.00    -0.646 OA
ATOM     82  C5  IDS d 504     -16.766  50.548 173.226  0.00  0.00     0.257 C 
ATOM     83  H   IDS d 504     -19.195  50.425 176.109  0.00  0.00     0.210 HD
ATOM     84  C4  IDS d 502     -21.889  57.120 173.923  0.00  0.00     0.195 C 
ATOM     85  O3S IDS d 502     -24.597  52.674 173.479  0.00  0.00    -0.572 OA
ATOM     86  C1  IDS d 502     -23.728  56.123 175.927  0.00  0.00     0.291 C 
ATOM     87  C2  IDS d 502     -23.949  55.752 174.464  0.00  0.00     0.231 C 
ATOM     88  O2S IDS d 502     -22.278  52.866 172.828  0.00  0.00    -0.572 OA
ATOM     89  O4  IDS d 502     -21.060  56.015 173.670  0.00  0.00    -0.348 OA
ATOM     90  C6  IDS d 502     -20.453  57.848 175.914  0.00  0.00     0.206 C 
ATOM     91  O62 IDS d 502     -19.893  58.847 175.506  0.00  0.00    -0.646 OA
ATOM     92  C3  IDS d 502     -23.336  56.785 173.514  0.00  0.00     0.185 C 
ATOM     93  O61 IDS d 502     -19.872  57.171 176.727  0.00  0.00    -0.646 OA
ATOM     94  O1S IDS d 502     -23.927  54.329 171.896  0.00  0.00    -0.572 OA
ATOM     95  O2  IDS d 502     -23.304  54.530 174.223  0.00  0.00    -0.244 OA
ATOM     96  O1  IDS d 502     -24.575  57.199 176.232  0.00  0.00    -0.368 OA
ATOM     97  S   IDS d 502     -23.538  53.542 173.033  0.00  0.00     0.252 S 
ATOM     98  O3  IDS d 502     -24.117  57.962 173.583  0.00  0.00    -0.390 OA
ATOM     99  O5  IDS d 502     -22.376  56.410 176.183  0.00  0.00    -0.340 OA
ATOM    100  C5  IDS d 502     -21.837  57.464 175.410  0.00  0.00     0.257 C 
ATOM    101  H   IDS d 502     -24.360  57.952 175.659  0.00  0.00     0.212 HD
ATOM    102  H   IDS d 502     -24.112  58.300 174.492  0.00  0.00     0.210 HD
ENDROOT
TORSDOF 40
