REMARK  0 active torsions:
REMARK  status: ('A' for Active; 'I' for Inactive)
REMARK       I    between atoms: C2_1  and  O2_14 
REMARK       I    between atoms: O3_4  and  C3_18 
REMARK       I    between atoms: C4_5  and  O4_13 
REMARK       I    between atoms: C7_7  and  N2_15 
REMARK       I    between atoms: O3_8  and  C1_12 
REMARK       I    between atoms: O3_8  and  C3_26 
REMARK       I    between atoms: C1_9  and  O1_11 
REMARK       I    between atoms: C6_10  and  C5_25 
REMARK       I    between atoms: C6_10  and  O6_20 
REMARK       I    between atoms: N2_15  and  C2_23 
REMARK       I    between atoms: C6_16  and  C5_17 
ROOT
ATOM      1  C2  GC4 d1769      26.308  17.670  29.782  0.00  0.00     0.202 C 
ATOM      2  O6B GC4 d1769      24.631  22.344  29.779  0.00  0.00    -0.646 OA
ATOM      3  O3  GC4 d1769      24.347  16.627  28.813  0.00  0.00    -0.393 OA
ATOM      4  O5  GC4 d1769      26.089  20.101  29.950  0.00  0.00    -0.343 OA
ATOM      5  C1  GC4 d1769      27.040  19.019  29.786  0.00  0.00     0.292 C 
ATOM      6  O2  GC4 d1769      27.215  16.571  29.717  0.00  0.00    -0.388 OA
ATOM      7  C6  GC4 d1769      24.445  21.502  28.864  0.00  0.00     0.203 C 
ATOM      8  C5  GC4 d1769      25.286  20.259  28.796  0.00  0.00     0.228 C 
ATOM      9  C3  GC4 d1769      25.311  17.668  28.615  0.00  0.00     0.154 C 
ATOM     10  C4  GC4 d1769      24.540  18.972  28.422  0.00  0.00     0.077 C 
ATOM     11  O6A GC4 d1769      23.634  21.748  27.961  0.00  0.00    -0.646 OA
ATOM     12  H   GC4 d1769      24.805  15.781  28.939  0.00  0.00     0.210 HD
ATOM     13  H   GC4 d1769      27.731  16.625  28.897  0.00  0.00     0.210 HD
ATOM     14  O5  NAG d1770      31.536  21.339  31.082  0.00  0.00    -0.349 OA
ATOM     15  C4  NAG d1770      29.318  20.834  31.871  0.00  0.00     0.180 C 
ATOM     16  C7  NAG d1770      30.199  17.503  28.644  0.00  0.00     0.214 C 
ATOM     17  O3  NAG d1770      28.021  19.116  30.745  0.00  0.00    -0.348 OA
ATOM     18  C1  NAG d1770      31.326  20.660  29.826  0.00  0.00     0.282 C 
ATOM     19  C6  NAG d1770      30.704  22.740  32.852  0.00  0.00     0.198 C 
ATOM     20  O1  NAG d1770      32.560  20.184  29.468  0.00  0.00    -0.369 OA
ATOM     21  O4  NAG d1770      28.150  21.455  32.365  0.00  0.00    -0.390 OA
ATOM     22  N2  NAG d1770      30.057  18.800  28.725  0.00  0.00    -0.349 N 
ATOM     23  O6  NAG d1770      31.196  21.824  33.784  0.00  0.00    -0.398 OA
ATOM     24  C8  NAG d1770      29.837  16.945  27.252  0.00  0.00     0.117 C 
ATOM     25  O7  NAG d1770      30.617  16.814  29.624  0.00  0.00    -0.274 OA
ATOM     26  C2  NAG d1770      30.321  19.538  29.928  0.00  0.00     0.171 C 
ATOM     27  C5  NAG d1770      30.350  21.889  31.603  0.00  0.00     0.179 C 
ATOM     28  C3  NAG d1770      29.047  20.080  30.560  0.00  0.00     0.183 C 
ATOM     29  H   NAG d1770      32.888  19.586  30.157  0.00  0.00     0.212 HD
ATOM     30  H   NAG d1770      27.825  22.096  31.714  0.00  0.00     0.210 HD
ATOM     31  H   NAG d1770      29.756  19.292  27.927  0.00  0.00     0.163 HD
ATOM     32  H   NAG d1770      30.523  21.148  33.959  0.00  0.00     0.209 HD
ENDROOT
TORSDOF 10
