REMARK  0 active torsions:
REMARK  status: ('A' for Active; 'I' for Inactive)
REMARK       I    between atoms: C2_1  and  N_100 
REMARK       I    between atoms: O4_2  and  C1_19 
REMARK       I    between atoms: O4_2  and  C4_31 
REMARK       I    between atoms: O1S_6  and  S1_60 
REMARK       I    between atoms: C3_7  and  O3_67 
REMARK       I    between atoms: O2_8  and  C2_96 
REMARK       I    between atoms: O2_8  and  S_80 
REMARK       I    between atoms: O2S_9  and  S1_60 
REMARK       I    between atoms: O4_12  and  C1_46 
REMARK       I    between atoms: O4_12  and  C4_99 
REMARK       I    between atoms: O1S_13  and  S1_90 
REMARK       I    between atoms: O3_14  and  C3_58 
REMARK       I    between atoms: C2_16  and  O2_47 
REMARK       I    between atoms: O3S_17  and  S1_60 
REMARK       I    between atoms: C5_20  and  C6_53 
REMARK       I    between atoms: S2_21  and  O6_54 
REMARK       I    between atoms: S2_22  and  O6_63 
REMARK       I    between atoms: C6_23  and  C5_24 
REMARK       I    between atoms: C6_26  and  C5_88 
REMARK       I    between atoms: C6_26  and  O6_37 
REMARK       I    between atoms: C1_27  and  O1_55 
REMARK       I    between atoms: O2S_28  and  S1_29 
REMARK       I    between atoms: S1_29  and  N_77 
REMARK       I    between atoms: S1_29  and  O1S_85 
REMARK       I    between atoms: S1_29  and  O3S_103 
REMARK       I    between atoms: O3_32  and  C3_65 
REMARK       I    between atoms: C3_33  and  O3_83 
REMARK       I    between atoms: C4_34  and  O4_94 
REMARK       I    between atoms: C3_35  and  O3_93 
REMARK       I    between atoms: O6_37  and  S2_92 
REMARK       I    between atoms: O2S_42  and  S1_90 
REMARK       I    between atoms: O4_43  and  C1_48 
REMARK       I    between atoms: O4_43  and  C4_44 
REMARK       I    between atoms: O3S_45  and  S1_90 
REMARK       I    between atoms: O2_47  and  S_64 
REMARK       I    between atoms: O2_49  and  C2_75 
REMARK       I    between atoms: O2_49  and  S_56 
REMARK       I    between atoms: C1_50  and  O4_94 
REMARK       I    between atoms: O3_51  and  C3_86 
REMARK       I    between atoms: C6_53  and  O6_54 
REMARK       I    between atoms: C5_59  and  C6_66 
REMARK       I    between atoms: S1_60  and  N_100 
REMARK       I    between atoms: C4_62  and  O4_84 
REMARK       I    between atoms: O6_63  and  C6_104 
REMARK       I    between atoms: C5_68  and  C6_71 
REMARK       I    between atoms: C1_69  and  O4_84 
REMARK       I    between atoms: N_70  and  C2_76 
REMARK       I    between atoms: N_70  and  S1_90 
REMARK       I    between atoms: N_77  and  C2_102 
REMARK       I    between atoms: C5_101  and  C6_104 
ROOT
ATOM      1  C2  SGN d  62      17.348  35.167  39.969  0.00  0.00     0.157 C 
ATOM      2  O4S SGN d  62      21.706  37.249  34.344  0.00  0.00    -0.572 OA
ATOM      3  O1S SGN d  62      15.656  34.294  43.339  0.00  0.00    -0.296 OA
ATOM      4  O2S SGN d  62      14.613  34.553  41.198  0.00  0.00    -0.296 OA
ATOM      5  O5S SGN d  62      22.918  35.367  35.059  0.00  0.00    -0.572 OA
ATOM      6  O3S SGN d  62      15.548  36.417  42.233  0.00  0.00    -0.296 OA
ATOM      7  C6  SGN d  62      19.567  36.392  36.556  0.00  0.00     0.227 C 
ATOM      8  O6S SGN d  62      22.558  37.112  36.590  0.00  0.00    -0.572 OA
ATOM      9  C3  SGN d  62      17.926  34.058  39.085  0.00  0.00     0.173 C 
ATOM     10  O6  SGN d  62      20.544  35.561  35.955  0.00  0.00    -0.254 OA
ATOM     11  O4  SGN d  62      18.668  33.670  36.792  0.00  0.00    -0.348 OA
ATOM     12  C4  SGN d  62      18.144  34.651  37.684  0.00  0.00     0.186 C 
ATOM     13  S1  SGN d  62      15.668  34.987  42.068  0.00  0.00     0.156 S 
ATOM     14  C1  SGN d  62      18.295  36.351  40.106  0.00  0.00     0.282 C 
ATOM     15  O3  SGN d  62      16.984  33.020  39.045  0.00  0.00    -0.391 OA
ATOM     16  C5  SGN d  62      19.212  35.742  37.872  0.00  0.00     0.181 C 
ATOM     17  S2  SGN d  62      21.993  36.396  35.449  0.00  0.00     0.251 S 
ATOM     18  N   SGN d  62      17.161  34.583  41.259  0.00  0.00    -0.210 NA
ATOM     19  O5  SGN d  62      18.713  36.775  38.769  0.00  0.00    -0.349 OA
ATOM     20  H   SGN d  62      14.835  34.501  43.812  0.00  0.00     0.231 HD
ATOM     21  H   SGN d  62      13.755  34.756  41.604  0.00  0.00     0.231 HD
ATOM     22  H   SGN d  62      14.714  36.622  42.684  0.00  0.00     0.231 HD
ATOM     23  H   SGN d  62      16.141  33.361  38.708  0.00  0.00     0.210 HD
ATOM     24  H   SGN d  62      17.931  34.887  41.854  0.00  0.00     0.140 HD
ATOM     25  O4  IDS d  65      21.905  39.697  47.946  0.00  0.00    -0.348 OA
ATOM     26  O2  IDS d  65      22.560  44.638  48.516  0.00  0.00    -0.244 OA
ATOM     27  O3  IDS d  65      23.752  42.409  47.591  0.00  0.00    -0.390 OA
ATOM     28  O2S IDS d  65      24.898  44.187  49.550  0.00  0.00    -0.572 OA
ATOM     29  C4  IDS d  65      22.160  40.946  48.594  0.00  0.00     0.195 C 
ATOM     30  C1  IDS d  65      20.763  43.363  49.580  0.00  0.00     0.294 C 
ATOM     31  O61 IDS d  65      20.949  38.539  49.864  0.00  0.00    -0.646 OA
ATOM     32  C3  IDS d  65      22.431  42.359  48.029  0.00  0.00     0.185 C 
ATOM     33  C5  IDS d  65      21.118  40.921  49.767  0.00  0.00     0.257 C 
ATOM     34  C6  IDS d  65      20.293  39.610  49.860  0.00  0.00     0.206 C 
ATOM     35  O1S IDS d  65      24.911  45.109  47.351  0.00  0.00    -0.572 OA
ATOM     36  O3S IDS d  65      24.357  46.478  49.244  0.00  0.00    -0.572 OA
ATOM     37  O5  IDS d  65      20.180  42.038  49.685  0.00  0.00    -0.340 OA
ATOM     38  S   IDS d  65      24.265  45.142  48.662  0.00  0.00     0.252 S 
ATOM     39  C2  IDS d  65      22.246  43.384  49.102  0.00  0.00     0.231 C 
ATOM     40  O62 IDS d  65      19.030  39.676  49.949  0.00  0.00    -0.646 OA
ATOM     41  H   IDS d  65      23.887  41.748  46.894  0.00  0.00     0.210 HD
ATOM     42  O3S IDS d  61      16.785  34.338  32.905  0.00  0.00    -0.572 OA
ATOM     43  O62 IDS d  61      14.345  31.504  37.482  0.00  0.00    -0.642 OA
ATOM     44  C2  IDS d  61      18.511  32.342  34.799  0.00  0.00     0.233 C 
ATOM     45  C3  IDS d  61      18.825  31.013  35.486  0.00  0.00     0.179 C 
ATOM     46  O1S IDS d  61      15.297  32.918  34.162  0.00  0.00    -0.572 OA
ATOM     47  O2  IDS d  61      17.698  32.004  33.662  0.00  0.00    -0.244 OA
ATOM     48  C1  IDS d  61      17.786  33.335  35.701  0.00  0.00     0.300 C 
ATOM     49  S   IDS d  61      16.304  32.984  33.136  0.00  0.00     0.252 S 
ATOM     50  C5  IDS d  61      16.654  31.367  36.649  0.00  0.00     0.147 C 
ATOM     51  C6  IDS d  61      15.357  30.777  37.327  0.00  0.00     0.233 C 
ATOM     52  O2S IDS d  61      15.716  32.410  31.974  0.00  0.00    -0.572 OA
ATOM     53  O5  IDS d  61      16.598  32.689  36.228  0.00  0.00    -0.311 OA
ATOM     54  C4  IDS d  61      17.726  30.567  36.390  0.00  0.00     0.051 C 
ATOM     55  O61 IDS d  61      15.329  29.595  37.672  0.00  0.00    -0.642 OA
ATOM     56  O3  IDS d  61      20.017  31.213  36.160  0.00  0.00    -0.389 OA
ATOM     57  H   IDS d  61      19.910  31.934  36.799  0.00  0.00     0.210 HD
ATOM     58  O6S SGN d  66      19.864  47.912  52.314  0.00  0.00    -0.572 OA
ATOM     59  C3  SGN d  66      20.654  41.888  52.872  0.00  0.00     0.173 C 
ATOM     60  O5S SGN d  66      21.841  47.783  50.998  0.00  0.00    -0.572 OA
ATOM     61  O1S SGN d  66      19.878  38.609  56.552  0.00  0.00    -0.296 OA
ATOM     62  C5  SGN d  66      22.352  43.756  53.112  0.00  0.00     0.181 C 
ATOM     63  S2  SGN d  66      20.828  47.012  51.713  0.00  0.00     0.251 S 
ATOM     64  C1  SGN d  66      21.807  42.346  55.063  0.00  0.00     0.278 C 
ATOM     65  C4  SGN d  66      21.080  43.285  52.390  0.00  0.00     0.186 C 
ATOM     66  O2S SGN d  66      19.991  40.844  57.423  0.00  0.00    -0.296 OA
ATOM     67  O3S SGN d  66      21.938  39.731  56.583  0.00  0.00    -0.296 OA
ATOM     68  C6  SGN d  66      22.714  45.188  52.676  0.00  0.00     0.227 C 
ATOM     69  O6  SGN d  66      21.649  46.109  53.009  0.00  0.00    -0.254 OA
ATOM     70  O1  SGN d  66      22.809  41.372  54.711  0.00  0.00    -0.369 OA
ATOM     71  O3  SGN d  66      19.387  41.559  52.304  0.00  0.00    -0.391 OA
ATOM     72  N   SGN d  66      20.072  40.579  54.833  0.00  0.00    -0.210 NA
ATOM     73  C2  SGN d  66      20.485  41.919  54.393  0.00  0.00     0.157 C 
ATOM     74  O5  SGN d  66      22.150  43.682  54.565  0.00  0.00    -0.350 OA
ATOM     75  S1  SGN d  66      20.503  39.918  56.432  0.00  0.00     0.156 S 
ATOM     76  O4  SGN d  66      21.285  43.331  50.900  0.00  0.00    -0.348 OA
ATOM     77  O4S SGN d  66      20.133  46.101  50.814  0.00  0.00    -0.572 OA
ATOM     78  H   SGN d  66      20.096  38.224  57.415  0.00  0.00     0.231 HD
ATOM     79  H   SGN d  66      20.206  40.519  58.311  0.00  0.00     0.231 HD
ATOM     80  H   SGN d  66      22.126  39.371  57.464  0.00  0.00     0.231 HD
ATOM     81  H   SGN d  66      22.887  41.323  53.745  0.00  0.00     0.212 HD
ATOM     82  H   SGN d  66      18.730  42.218  52.577  0.00  0.00     0.210 HD
ATOM     83  H   SGN d  66      20.450  39.927  54.146  0.00  0.00     0.140 HD
ATOM     84  O4  SGN d  64      20.396  36.404  45.389  0.00  0.00    -0.348 OA
ATOM     85  C1  SGN d  64      22.930  38.717  47.777  0.00  0.00     0.282 C 
ATOM     86  S2  SGN d  64      23.316  34.444  48.506  0.00  0.00     0.251 S 
ATOM     87  O2S SGN d  64      24.564  41.510  44.059  0.00  0.00    -0.296 OA
ATOM     88  S1  SGN d  64      24.770  40.165  44.521  0.00  0.00     0.156 S 
ATOM     89  O3  SGN d  64      22.342  38.214  44.229  0.00  0.00    -0.391 OA
ATOM     90  O4S SGN d  64      23.009  33.320  47.660  0.00  0.00    -0.572 OA
ATOM     91  O6S SGN d  64      24.078  35.425  47.761  0.00  0.00    -0.572 OA
ATOM     92  O5  SGN d  64      22.480  37.418  48.217  0.00  0.00    -0.349 OA
ATOM     93  O6  SGN d  64      21.774  35.125  49.088  0.00  0.00    -0.254 OA
ATOM     94  C3  SGN d  64      22.006  38.237  45.569  0.00  0.00     0.173 C 
ATOM     95  N   SGN d  64      23.634  39.975  45.867  0.00  0.00    -0.210 NA
ATOM     96  O5S SGN d  64      24.085  34.017  49.644  0.00  0.00    -0.572 OA
ATOM     97  O1S SGN d  64      26.141  39.970  44.965  0.00  0.00    -0.296 OA
ATOM     98  C4  SGN d  64      21.588  36.829  46.067  0.00  0.00     0.186 C 
ATOM     99  C5  SGN d  64      21.265  36.941  47.568  0.00  0.00     0.181 C 
ATOM    100  C2  SGN d  64      23.241  38.658  46.304  0.00  0.00     0.157 C 
ATOM    101  O3S SGN d  64      24.474  39.236  43.445  0.00  0.00    -0.296 OA
ATOM    102  C6  SGN d  64      20.851  35.591  48.114  0.00  0.00     0.227 C 
ATOM    103  H   SGN d  64      24.761  42.132  44.777  0.00  0.00     0.231 HD
ATOM    104  H   SGN d  64      22.599  39.105  43.945  0.00  0.00     0.210 HD
ATOM    105  H   SGN d  64      22.779  40.463  45.601  0.00  0.00     0.140 HD
ATOM    106  H   SGN d  64      26.339  40.590  45.684  0.00  0.00     0.231 HD
ATOM    107  H   SGN d  64      23.560  39.366  43.148  0.00  0.00     0.231 HD
ATOM    108  O3S IDS d  63      20.602  32.377  43.893  0.00  0.00    -0.572 OA
ATOM    109  C6  IDS d  63      22.068  37.034  41.554  0.00  0.00     0.206 C 
ATOM    110  C5  IDS d  63      20.966  36.772  42.577  0.00  0.00     0.257 C 
ATOM    111  O61 IDS d  63      22.007  38.033  40.839  0.00  0.00    -0.646 OA
ATOM    112  O5  IDS d  63      21.249  35.500  43.295  0.00  0.00    -0.340 OA
ATOM    113  O1S IDS d  63      18.878  31.632  42.439  0.00  0.00    -0.572 OA
ATOM    114  C1  IDS d  63      20.392  35.288  44.446  0.00  0.00     0.294 C 
ATOM    115  O2  IDS d  63      18.742  34.134  43.021  0.00  0.00    -0.244 OA
ATOM    116  O3  IDS d  63      18.622  37.472  44.281  0.00  0.00    -0.390 OA
ATOM    117  S   IDS d  63      19.218  32.512  43.542  0.00  0.00     0.252 S 
ATOM    118  C4  IDS d  63      19.500  36.830  42.069  0.00  0.00     0.195 C 
ATOM    119  C2  IDS d  63      18.929  35.182  43.935  0.00  0.00     0.231 C 
ATOM    120  O2S IDS d  63      18.447  32.223  44.744  0.00  0.00    -0.572 OA
ATOM    121  O4  IDS d  63      19.376  35.951  40.958  0.00  0.00    -0.348 OA
ATOM    122  C3  IDS d  63      18.509  36.498  43.267  0.00  0.00     0.185 C 
ATOM    123  O62 IDS d  63      23.009  36.239  41.519  0.00  0.00    -0.646 OA
ATOM    124  H   IDS d  63      18.369  38.339  43.926  0.00  0.00     0.210 HD
ENDROOT
TORSDOF 50
