REMARK  0 active torsions:
REMARK  status: ('A' for Active; 'I' for Inactive)
REMARK       I    between atoms: C6_2  and  C5_69 
REMARK       I    between atoms: C6_2  and  O6_17 
REMARK       I    between atoms: C1_4  and  O1_126 
REMARK       I    between atoms: S3_5  and  O3_13 
REMARK       I    between atoms: O3S_6  and  S1_20 
REMARK       I    between atoms: O1_7  and  C4_135 
REMARK       I    between atoms: O1_7  and  C1_76 
REMARK       I    between atoms: C5_8  and  C6_142 
REMARK       I    between atoms: C2_9  and  N_93 
REMARK       I    between atoms: O1_10  and  C4_74 
REMARK       I    between atoms: O1_10  and  C1_68 
REMARK       I    between atoms: S_12  and  O2_26 
REMARK       I    between atoms: O3_13  and  C3_87 
REMARK       I    between atoms: C5_15  and  C6_65 
REMARK       I    between atoms: O6_17  and  S2_102 
REMARK       I    between atoms: S_18  and  O2_144 
REMARK       I    between atoms: N_19  and  S1_96 
REMARK       I    between atoms: N_19  and  C2_125 
REMARK       I    between atoms: S1_20  and  N_93 
REMARK       I    between atoms: S1_20  and  O1S_132 
REMARK       I    between atoms: S1_20  and  O2S_138 
REMARK       I    between atoms: C2_22  and  O2_136 
REMARK       I    between atoms: O2_26  and  C2_109 
REMARK       I    between atoms: C2_27  and  N_77 
REMARK       I    between atoms: O3_29  and  C3_131 
REMARK       I    between atoms: C6_30  and  C5_45 
REMARK       I    between atoms: C6_31  and  C5_57 
REMARK       I    between atoms: C5_32  and  C6_90 
REMARK       I    between atoms: O6_37  and  C6_142 
REMARK       I    between atoms: O6_37  and  S2_98 
REMARK       I    between atoms: C4_38  and  O1_84 
REMARK       I    between atoms: C4_40  and  O1_126 
REMARK       I    between atoms: O1_41  and  C1_129 
REMARK       I    between atoms: O3S_44  and  S1_96 
REMARK       I    between atoms: O3S_46  and  S1_49 
REMARK       I    between atoms: S_48  and  O2_136 
REMARK       I    between atoms: S1_49  and  N_92 
REMARK       I    between atoms: S1_49  and  O1S_107 
REMARK       I    between atoms: S1_49  and  O2S_70 
REMARK       I    between atoms: C3_51  and  O3_97 
REMARK       I    between atoms: S1_55  and  N_77 
REMARK       I    between atoms: S1_55  and  O1S_56 
REMARK       I    between atoms: S1_55  and  O2S_115 
REMARK       I    between atoms: S1_55  and  O3S_61 
REMARK       I    between atoms: O2_59  and  C2_85 
REMARK       I    between atoms: O2_59  and  S_88 
REMARK       I    between atoms: C3_60  and  O3_123 
REMARK       I    between atoms: C6_65  and  O6_106 
REMARK       I    between atoms: C4_66  and  O1_105 
REMARK       I    between atoms: O1_67  and  C4_89 
REMARK       I    between atoms: O1_67  and  C1_114 
REMARK       I    between atoms: S2_71  and  O6_104 
REMARK       I    between atoms: C3_72  and  O3_119 
REMARK       I    between atoms: C6_73  and  C5_99 
REMARK       I    between atoms: C3_75  and  O3_108 
REMARK       I    between atoms: C3_78  and  O3_100 
REMARK       I    between atoms: C1_79  and  O1_105 
REMARK       I    between atoms: C3_82  and  O3_139 
REMARK       I    between atoms: O1_84  and  C1_140 
REMARK       I    between atoms: N_92  and  C2_133 
REMARK       I    between atoms: C4_94  and  O1_120 
REMARK       I    between atoms: C4_95  and  O4_117 
REMARK       I    between atoms: S1_96  and  O1S_127 
REMARK       I    between atoms: S1_96  and  O2S_118 
REMARK       I    between atoms: C5_101  and  C6_130 
REMARK       I    between atoms: O6_104  and  C6_130 
REMARK       I    between atoms: O6_106  and  S2_121 
REMARK       I    between atoms: O1_120  and  C1_122 
REMARK       I    between atoms: O2_144  and  C2_145 
ROOT
ATOM      1  O62 IDS d 501      45.404   4.629  17.913  0.00  0.00    -0.646 OA
ATOM      2  O61 IDS d 501      45.931   2.579  17.279  0.00  0.00    -0.646 OA
ATOM      3  S   IDS d 501      44.192  -0.678  22.202  0.00  0.00     0.252 S 
ATOM      4  O1S IDS d 501      45.448  -1.490  22.077  0.00  0.00    -0.572 OA
ATOM      5  O5  IDS d 501      46.275   1.653  19.680  0.00  0.00    -0.340 OA
ATOM      6  C6  IDS d 501      45.733   3.448  18.156  0.00  0.00     0.206 C 
ATOM      7  C4  IDS d 501      44.569   3.241  20.346  0.00  0.00     0.195 C 
ATOM      8  O1  IDS d 501      47.572   2.091  21.572  0.00  0.00    -0.368 OA
ATOM      9  C5  IDS d 501      45.901   3.038  19.620  0.00  0.00     0.257 C 
ATOM     10  C3  IDS d 501      44.738   2.809  21.804  0.00  0.00     0.185 C 
ATOM     11  O2S IDS d 501      44.010  -0.254  23.630  0.00  0.00    -0.572 OA
ATOM     12  O3S IDS d 501      43.018  -1.509  21.775  0.00  0.00    -0.572 OA
ATOM     13  O3  IDS d 501      45.655   3.694  22.453  0.00  0.00    -0.390 OA
ATOM     14  C1  IDS d 501      46.546   1.252  21.032  0.00  0.00     0.291 C 
ATOM     15  O2  IDS d 501      44.285   0.479  21.366  0.00  0.00    -0.244 OA
ATOM     16  C2  IDS d 501      45.275   1.378  21.876  0.00  0.00     0.231 C 
ATOM     17  H   IDS d 501      48.375   2.007  21.034  0.00  0.00     0.212 HD
ATOM     18  H   IDS d 501      46.514   3.655  22.005  0.00  0.00     0.210 HD
ATOM     19  C6  SUS d 506      26.993   7.076  13.750  0.00  0.00     0.227 C 
ATOM     20  S3  SUS d 506      31.840  10.348  13.948  0.00  0.00     0.252 S 
ATOM     21  O3  SUS d 506      30.894  10.000  12.930  0.00  0.00    -0.247 OA
ATOM     22  O4S SUS d 506      24.496   8.995  13.647  0.00  0.00    -0.572 OA
ATOM     23  O6  SUS d 506      26.161   7.571  12.696  0.00  0.00    -0.254 OA
ATOM     24  N   SUS d 506      32.180   7.822  11.533  0.00  0.00    -0.210 NA
ATOM     25  O7S SUS d 506      33.142   9.644  13.703  0.00  0.00    -0.572 OA
ATOM     26  O5S SUS d 506      24.069   7.790  11.562  0.00  0.00    -0.572 OA
ATOM     27  O3S SUS d 506      32.024   7.145   9.062  0.00  0.00    -0.296 OA
ATOM     28  O6S SUS d 506      24.220   6.561  13.681  0.00  0.00    -0.572 OA
ATOM     29  C5  SUS d 506      28.483   7.170  13.406  0.00  0.00     0.181 C 
ATOM     30  O1  SUS d 506      30.928   5.549  12.567  0.00  0.00    -0.348 OA
ATOM     31  C3  SUS d 506      30.431   8.651  13.053  0.00  0.00     0.200 C 
ATOM     32  S1  SUS d 506      32.531   8.209   9.989  0.00  0.00     0.156 S 
ATOM     33  S2  SUS d 506      24.751   7.722  12.896  0.00  0.00     0.251 S 
ATOM     34  O5  SUS d 506      28.745   6.479  12.173  0.00  0.00    -0.349 OA
ATOM     35  O2S SUS d 506      34.021   8.316   9.855  0.00  0.00    -0.296 OA
ATOM     36  C2  SUS d 506      30.729   7.885  11.762  0.00  0.00     0.159 C 
ATOM     37  O1S SUS d 506      31.899   9.520   9.629  0.00  0.00    -0.296 OA
ATOM     38  O8S SUS d 506      32.073  11.829  13.918  0.00  0.00    -0.572 OA
ATOM     39  C4  SUS d 506      28.918   8.633  13.273  0.00  0.00     0.188 C 
ATOM     40  O9S SUS d 506      31.312   9.962  15.299  0.00  0.00    -0.572 OA
ATOM     41  C1  SUS d 506      30.130   6.474  11.781  0.00  0.00     0.282 C 
ATOM     42  H   SUS d 506      32.647   8.479  12.158  0.00  0.00     0.140 HD
ATOM     43  H   SUS d 506      31.060   7.074   9.147  0.00  0.00     0.231 HD
ATOM     44  H   SUS d 506      34.428   7.467  10.088  0.00  0.00     0.231 HD
ATOM     45  H   SUS d 506      30.936   9.449   9.716  0.00  0.00     0.231 HD
ATOM     46  O2S IDS d 503      42.076   1.291  11.201  0.00  0.00    -0.572 OA
ATOM     47  C2  IDS d 503      40.674   1.430  13.668  0.00  0.00     0.231 C 
ATOM     48  C5  IDS d 503      38.485   1.338  15.546  0.00  0.00     0.257 C 
ATOM     49  O5  IDS d 503      39.159   2.564  15.221  0.00  0.00    -0.340 OA
ATOM     50  S   IDS d 503      41.348   2.502  11.705  0.00  0.00     0.252 S 
ATOM     51  O61 IDS d 503      36.540   2.728  15.604  0.00  0.00    -0.646 OA
ATOM     52  C3  IDS d 503      39.889   0.132  13.876  0.00  0.00     0.185 C 
ATOM     53  C1  IDS d 503      40.541   2.369  14.871  0.00  0.00     0.294 C 
ATOM     54  C6  IDS d 503      37.045   1.644  15.967  0.00  0.00     0.206 C 
ATOM     55  C4  IDS d 503      38.455   0.404  14.335  0.00  0.00     0.195 C 
ATOM     56  O1S IDS d 503      42.283   3.328  12.538  0.00  0.00    -0.572 OA
ATOM     57  O1  IDS d 503      41.301   1.813  15.975  0.00  0.00    -0.348 OA
ATOM     58  O62 IDS d 503      36.447   0.788  16.654  0.00  0.00    -0.646 OA
ATOM     59  O3  IDS d 503      40.547  -0.687  14.845  0.00  0.00    -0.390 OA
ATOM     60  O2  IDS d 503      40.221   2.105  12.493  0.00  0.00    -0.244 OA
ATOM     61  O3S IDS d 503      40.863   3.312  10.539  0.00  0.00    -0.572 OA
ATOM     62  H   IDS d 503      40.579  -0.220  15.695  0.00  0.00     0.210 HD
ATOM     63  C1  SGN d 502      42.254   3.070  19.840  0.00  0.00     0.282 C 
ATOM     64  O3S SGN d 502      41.317   2.439  22.749  0.00  0.00    -0.296 OA
ATOM     65  C2  SGN d 502      41.143   2.025  19.721  0.00  0.00     0.157 C 
ATOM     66  C5  SGN d 502      42.206   3.501  17.501  0.00  0.00     0.181 C 
ATOM     67  S1  SGN d 502      40.670   1.248  22.107  0.00  0.00     0.156 S 
ATOM     68  O5S SGN d 502      41.048   6.153  14.485  0.00  0.00    -0.572 OA
ATOM     69  O3  SGN d 502      39.982   0.569  18.187  0.00  0.00    -0.391 OA
ATOM     70  O4S SGN d 502      39.444   7.026  16.194  0.00  0.00    -0.572 OA
ATOM     71  O5  SGN d 502      42.089   4.066  18.818  0.00  0.00    -0.349 OA
ATOM     72  O6S SGN d 502      41.975   7.446  16.522  0.00  0.00    -0.572 OA
ATOM     73  C6  SGN d 502      42.178   4.653  16.494  0.00  0.00     0.227 C 
ATOM     74  C4  SGN d 502      41.076   2.501  17.233  0.00  0.00     0.186 C 
ATOM     75  N   SGN d 502      41.390   0.937  20.679  0.00  0.00    -0.210 NA
ATOM     76  O6  SGN d 502      40.991   5.441  16.618  0.00  0.00    -0.254 OA
ATOM     77  S2  SGN d 502      40.868   6.663  15.885  0.00  0.00     0.251 S 
ATOM     78  O1  SGN d 502      43.549   2.431  19.707  0.00  0.00    -0.348 OA
ATOM     79  C3  SGN d 502      41.122   1.422  18.316  0.00  0.00     0.173 C 
ATOM     80  O1S SGN d 502      39.212   1.520  21.883  0.00  0.00    -0.296 OA
ATOM     81  O2S SGN d 502      40.826   0.054  23.001  0.00  0.00    -0.296 OA
ATOM     82  H   SGN d 502      41.217   3.212  22.172  0.00  0.00     0.231 HD
ATOM     83  H   SGN d 502      40.011  -0.115  18.874  0.00  0.00     0.210 HD
ATOM     84  H   SGN d 502      42.395   0.842  20.825  0.00  0.00     0.140 HD
ATOM     85  H   SGN d 502      39.112   2.292  21.305  0.00  0.00     0.231 HD
ATOM     86  H   SGN d 502      41.769  -0.121  23.145  0.00  0.00     0.231 HD
ATOM     87  O1  IDS d 507      28.577   9.391  14.462  0.00  0.00    -0.348 OA
ATOM     88  S   IDS d 507      24.811  10.123  16.593  0.00  0.00     0.252 S 
ATOM     89  O2  IDS d 507      26.169   9.826  16.250  0.00  0.00    -0.244 OA
ATOM     90  C6  IDS d 507      28.586  13.236  12.543  0.00  0.00     0.206 C 
ATOM     91  O2S IDS d 507      24.767  11.109  17.723  0.00  0.00    -0.572 OA
ATOM     92  C5  IDS d 507      28.126  12.367  13.716  0.00  0.00     0.257 C 
ATOM     93  O62 IDS d 507      27.868  13.277  11.522  0.00  0.00    -0.646 OA
ATOM     94  C3  IDS d 507      26.137  12.115  15.220  0.00  0.00     0.185 C 
ATOM     95  C4  IDS d 507      27.049  13.115  14.506  0.00  0.00     0.195 C 
ATOM     96  C1  IDS d 507      27.373  10.164  14.215  0.00  0.00     0.294 C 
ATOM     97  O61 IDS d 507      29.665  13.857  12.666  0.00  0.00    -0.646 OA
ATOM     98  O3S IDS d 507      24.068  10.670  15.411  0.00  0.00    -0.572 OA
ATOM     99  C2  IDS d 507      26.895  10.818  15.514  0.00  0.00     0.231 C 
ATOM    100  O1S IDS d 507      24.147   8.854  17.040  0.00  0.00    -0.572 OA
ATOM    101  O3  IDS d 507      25.700  12.697  16.450  0.00  0.00    -0.390 OA
ATOM    102  O5  IDS d 507      27.602  11.141  13.186  0.00  0.00    -0.340 OA
ATOM    103  H   IDS d 507      26.470  12.897  17.005  0.00  0.00     0.210 HD
ATOM    104  C5  SGN d 504      34.822   0.357  13.438  0.00  0.00     0.181 C 
ATOM    105  O6  SGN d 504      33.317  -1.547  13.826  0.00  0.00    -0.254 OA
ATOM    106  O3S SGN d 504      37.582  -0.712   8.424  0.00  0.00    -0.296 OA
ATOM    107  S1  SGN d 504      38.494  -0.245   9.519  0.00  0.00     0.156 S 
ATOM    108  O4S SGN d 504      32.434  -3.760  14.061  0.00  0.00    -0.572 OA
ATOM    109  O6S SGN d 504      32.518  -2.243  15.978  0.00  0.00    -0.572 OA
ATOM    110  O5  SGN d 504      35.882  -0.607  13.318  0.00  0.00    -0.349 OA
ATOM    111  O2S SGN d 504      38.882  -1.424  10.361  0.00  0.00    -0.296 OA
ATOM    112  C3  SGN d 504      35.439   1.288  11.216  0.00  0.00     0.173 C 
ATOM    113  C4  SGN d 504      34.297   0.691  12.038  0.00  0.00     0.186 C 
ATOM    114  N   SGN d 504      37.729   0.867  10.436  0.00  0.00    -0.210 NA
ATOM    115  S2  SGN d 504      33.216  -2.662  14.719  0.00  0.00     0.251 S 
ATOM    116  O1S SGN d 504      39.718   0.379   8.918  0.00  0.00    -0.296 OA
ATOM    117  O3  SGN d 504      34.974   1.555   9.891  0.00  0.00    -0.391 OA
ATOM    118  O5S SGN d 504      34.593  -3.154  15.053  0.00  0.00    -0.572 OA
ATOM    119  O1  SGN d 504      37.666   0.963  13.253  0.00  0.00    -0.348 OA
ATOM    120  C1  SGN d 504      37.010  -0.133  12.563  0.00  0.00     0.282 C 
ATOM    121  C2  SGN d 504      36.586   0.277  11.150  0.00  0.00     0.157 C 
ATOM    122  C6  SGN d 504      33.728  -0.265  14.311  0.00  0.00     0.227 C 
ATOM    123  H   SGN d 504      37.325   0.044   7.873  0.00  0.00     0.231 HD
ATOM    124  H   SGN d 504      38.086  -1.822  10.746  0.00  0.00     0.231 HD
ATOM    125  H   SGN d 504      37.393   1.619   9.835  0.00  0.00     0.140 HD
ATOM    126  H   SGN d 504      39.459   1.140   8.375  0.00  0.00     0.231 HD
ATOM    127  H   SGN d 504      34.668   0.730   9.483  0.00  0.00     0.210 HD
ATOM    128  O1  SGN d 508      26.260  13.945  13.614  0.00  0.00    -0.348 OA
ATOM    129  O5S SGN d 508      30.228  19.004  12.349  0.00  0.00    -0.572 OA
ATOM    130  C2  SGN d 508      24.662  15.769  13.930  0.00  0.00     0.157 C 
ATOM    131  O5  SGN d 508      27.026  16.184  13.641  0.00  0.00    -0.349 OA
ATOM    132  S1  SGN d 508      23.368  15.261  16.047  0.00  0.00     0.156 S 
ATOM    133  O1S SGN d 508      24.605  15.076  16.875  0.00  0.00    -0.296 OA
ATOM    134  O6S SGN d 508      28.802  19.837  10.538  0.00  0.00    -0.572 OA
ATOM    135  O3S SGN d 508      22.266  14.398  16.587  0.00  0.00    -0.296 OA
ATOM    136  C1  SGN d 508      26.079  15.260  14.202  0.00  0.00     0.282 C 
ATOM    137  S2  SGN d 508      28.858  19.506  12.000  0.00  0.00     0.251 S 
ATOM    138  N   SGN d 508      23.670  14.846  14.499  0.00  0.00    -0.210 NA
ATOM    139  C3  SGN d 508      24.440  15.911  12.423  0.00  0.00     0.172 C 
ATOM    140  C4  SGN d 508      25.519  16.826  11.841  0.00  0.00     0.179 C 
ATOM    141  O3  SGN d 508      23.153  16.491  12.196  0.00  0.00    -0.391 OA
ATOM    142  C5  SGN d 508      26.896  16.269  12.212  0.00  0.00     0.181 C 
ATOM    143  O6  SGN d 508      27.890  18.497  12.296  0.00  0.00    -0.254 OA
ATOM    144  O2S SGN d 508      22.946  16.700  16.100  0.00  0.00    -0.296 OA
ATOM    145  O4  SGN d 508      25.387  16.878  10.418  0.00  0.00    -0.390 OA
ATOM    146  C6  SGN d 508      27.979  17.210  11.679  0.00  0.00     0.227 C 
ATOM    147  O4S SGN d 508      28.556  20.735  12.805  0.00  0.00    -0.572 OA
ATOM    148  H   SGN d 508      25.316  15.635  16.524  0.00  0.00     0.231 HD
ATOM    149  H   SGN d 508      22.538  13.467  16.553  0.00  0.00     0.231 HD
ATOM    150  H   SGN d 508      24.034  13.894  14.467  0.00  0.00     0.140 HD
ATOM    151  H   SGN d 508      23.110  17.361  12.623  0.00  0.00     0.210 HD
ATOM    152  H   SGN d 508      23.658  17.259  15.751  0.00  0.00     0.231 HD
ATOM    153  H   SGN d 508      25.485  15.985  10.051  0.00  0.00     0.210 HD
ATOM    154  O3S IDS d 505      35.245   5.576  10.226  0.00  0.00    -0.572 OA
ATOM    155  O62 IDS d 505      30.201   2.435  14.982  0.00  0.00    -0.646 OA
ATOM    156  C4  IDS d 505      30.948   4.258  11.900  0.00  0.00     0.195 C 
ATOM    157  O61 IDS d 505      28.812   3.280  13.488  0.00  0.00    -0.646 OA
ATOM    158  O2  IDS d 505      33.935   5.205  12.044  0.00  0.00    -0.244 OA
ATOM    159  O1  IDS d 505      33.152   1.586  12.063  0.00  0.00    -0.348 OA
ATOM    160  C6  IDS d 505      29.954   2.936  13.864  0.00  0.00     0.206 C 
ATOM    161  C3  IDS d 505      32.079   4.164  10.872  0.00  0.00     0.185 C 
ATOM    162  C2  IDS d 505      33.462   3.965  11.504  0.00  0.00     0.231 C 
ATOM    163  S   IDS d 505      35.303   5.492  11.720  0.00  0.00     0.252 S 
ATOM    164  O1S IDS d 505      36.005   4.323  12.348  0.00  0.00    -0.572 OA
ATOM    165  C5  IDS d 505      31.115   3.093  12.878  0.00  0.00     0.257 C 
ATOM    166  O5  IDS d 505      32.381   3.219  13.544  0.00  0.00    -0.340 OA
ATOM    167  C1  IDS d 505      33.426   2.903  12.611  0.00  0.00     0.294 C 
ATOM    168  O2S IDS d 505      35.488   6.755  12.508  0.00  0.00    -0.572 OA
ATOM    169  O3  IDS d 505      31.794   3.080   9.985  0.00  0.00    -0.390 OA
ATOM    170  H   IDS d 505      31.764   2.251  10.487  0.00  0.00     0.210 HD
ENDROOT
TORSDOF 69
