REMARK  0 active torsions:
REMARK  status: ('A' for Active; 'I' for Inactive)
REMARK       I    between atoms: C2_2  and  O2_34 
REMARK       I    between atoms: O4_3  and  C4_29 
REMARK       I    between atoms: O6_4  and  C6_17 
REMARK       I    between atoms: O6_4  and  S2_35 
REMARK       I    between atoms: C2_6  and  N_15 
REMARK       I    between atoms: O1_8  and  C1_19 
REMARK       I    between atoms: C4_9  and  O4_22 
REMARK       I    between atoms: C3_10  and  O3_13 
REMARK       I    between atoms: O1S_14  and  S1_21 
REMARK       I    between atoms: N_15  and  S1_21 
REMARK       I    between atoms: C1_16  and  O4_22 
REMARK       I    between atoms: C6_17  and  C5_36 
REMARK       I    between atoms: O2S_18  and  S1_21 
REMARK       I    between atoms: O3S_20  and  S1_21 
REMARK       I    between atoms: O3_23  and  C3_25 
REMARK       I    between atoms: S_28  and  O2_34 
REMARK       I    between atoms: C6_32  and  C5_33 
ROOT
ATOM      1  OS3 IDY d 142     -39.625   0.999  20.798  0.00  0.00    -0.572 OA
ATOM      2  C2  IDY d 142     -38.137  -1.163  19.549  0.00  0.00     0.231 C 
ATOM      3  O61 IDY d 142     -37.849  -5.661  22.341  0.00  0.00    -0.646 OA
ATOM      4  O1  IDY d 142     -37.000  -0.762  21.501  0.00  0.00    -0.363 OA
ATOM      5  C4  IDY d 142     -37.785  -3.666  19.536  0.00  0.00     0.195 C 
ATOM      6  OS2 IDY d 142     -39.643   1.365  18.413  0.00  0.00    -0.572 OA
ATOM      7  O62 IDY d 142     -39.848  -4.607  21.772  0.00  0.00    -0.646 OA
ATOM      8  C1  IDY d 142     -38.042  -1.250  21.050  0.00  0.00     0.293 C 
ATOM      9  O4  IDY d 142     -39.044  -4.356  19.076  0.00  0.00    -0.348 OA
ATOM     10  O3  IDY d 142     -36.177  -2.136  18.540  0.00  0.00    -0.390 OA
ATOM     11  C7  IDY d 142     -35.673  -0.290  21.637  0.00  0.00     0.204 C 
ATOM     12  C3  IDY d 142     -37.617  -2.365  18.828  0.00  0.00     0.185 C 
ATOM     13  S   IDY d 142     -40.107   0.456  19.484  0.00  0.00     0.252 S 
ATOM     14  O5  IDY d 142     -38.439  -2.480  21.620  0.00  0.00    -0.340 OA
ATOM     15  C6  IDY d 142     -38.525  -4.806  21.617  0.00  0.00     0.206 C 
ATOM     16  C5  IDY d 142     -37.773  -3.621  21.056  0.00  0.00     0.257 C 
ATOM     17  O2  IDY d 142     -39.523  -0.915  19.229  0.00  0.00    -0.244 OA
ATOM     18  OS1 IDY d 142     -41.574   0.357  19.443  0.00  0.00    -0.572 OA
ATOM     19  H   IDY d 142     -36.070  -1.289  18.079  0.00  0.00     0.210 HD
ATOM     20  O4  SGN d 141     -42.611  -6.583  19.794  0.00  0.00    -0.390 OA
ATOM     21  O6  SGN d 141     -39.694  -8.744  17.779  0.00  0.00    -0.254 OA
ATOM     22  O5S SGN d 141     -39.828 -11.001  18.410  0.00  0.00    -0.572 OA
ATOM     23  C2  SGN d 141     -40.818  -4.485  17.460  0.00  0.00     0.157 C 
ATOM     24  C3  SGN d 141     -41.837  -4.898  18.504  0.00  0.00     0.172 C 
ATOM     25  O3  SGN d 141     -43.169  -4.657  18.112  0.00  0.00    -0.391 OA
ATOM     26  O1S SGN d 141     -41.426  -1.084  16.006  0.00  0.00    -0.296 OA
ATOM     27  N   SGN d 141     -40.800  -3.050  17.329  0.00  0.00    -0.210 NA
ATOM     28  C1  SGN d 141     -39.438  -4.987  17.886  0.00  0.00     0.282 C 
ATOM     29  C6  SGN d 141     -40.255  -8.358  19.011  0.00  0.00     0.227 C 
ATOM     30  O2S SGN d 141     -41.820  -3.266  15.210  0.00  0.00    -0.296 OA
ATOM     31  O3S SGN d 141     -39.612  -2.465  15.279  0.00  0.00    -0.296 OA
ATOM     32  S1  SGN d 141     -40.906  -2.412  15.892  0.00  0.00     0.156 S 
ATOM     33  O4S SGN d 141     -38.702 -10.458  16.366  0.00  0.00    -0.572 OA
ATOM     34  O5  SGN d 141     -39.417  -6.388  18.088  0.00  0.00    -0.349 OA
ATOM     35  C4  SGN d 141     -41.739  -6.383  18.720  0.00  0.00     0.179 C 
ATOM     36  O6S SGN d 141     -37.693  -9.942  18.496  0.00  0.00    -0.572 OA
ATOM     37  S2  SGN d 141     -38.934 -10.090  17.747  0.00  0.00     0.251 S 
ATOM     38  C5  SGN d 141     -40.326  -6.849  19.049  0.00  0.00     0.181 C 
ATOM     39  H   SGN d 141     -43.499  -6.277  19.551  0.00  0.00     0.210 HD
ATOM     40  H   SGN d 141     -43.373  -5.179  17.320  0.00  0.00     0.210 HD
ATOM     41  H   SGN d 141     -42.300  -1.114  16.427  0.00  0.00     0.231 HD
ATOM     42  H   SGN d 141     -39.924  -2.724  17.737  0.00  0.00     0.140 HD
ATOM     43  H   SGN d 141     -42.689  -3.217  15.638  0.00  0.00     0.231 HD
ATOM     44  H   SGN d 141     -39.004  -1.879  15.756  0.00  0.00     0.231 HD
ENDROOT
TORSDOF 17
