REMARK  0 active torsions:
REMARK  status: ('A' for Active; 'I' for Inactive)
REMARK       I    between atoms: O4_1  and  C4_110 
REMARK       I    between atoms: O4_1  and  C1_48 
REMARK       I    between atoms: C3_4  and  O3_168 
REMARK       I    between atoms: C5_6  and  C6_12 
REMARK       I    between atoms: C3_7  and  O3_35 
REMARK       I    between atoms: O6_9  and  C6_154 
REMARK       I    between atoms: O6_9  and  S2_114 
REMARK       I    between atoms: C6_12  and  O6_125 
REMARK       I    between atoms: S1_13  and  N_34 
REMARK       I    between atoms: S_14  and  O2_167 
REMARK       I    between atoms: C4_16  and  O4_72 
REMARK       I    between atoms: O4_17  and  C4_160 
REMARK       I    between atoms: O4_17  and  C1_70 
REMARK       I    between atoms: C4_19  and  O4_79 
REMARK       I    between atoms: C2_20  and  O2_134 
REMARK       I    between atoms: C6_24  and  C5_37 
REMARK       I    between atoms: C6_24  and  O62_122 
REMARK       I    between atoms: C2_25  and  N_85 
REMARK       I    between atoms: C3_26  and  O3_135 
REMARK       I    between atoms: C2_27  and  N_66 
REMARK       I    between atoms: C3_28  and  O3_146 
REMARK       I    between atoms: O4_29  and  C4_126 
REMARK       I    between atoms: O4_29  and  C1_47 
REMARK       I    between atoms: C4_31  and  O4_102 
REMARK       I    between atoms: S2_32  and  O6_125 
REMARK       I    between atoms: C6_33  and  C5_148 
REMARK       I    between atoms: C6_33  and  O6_165 
REMARK       I    between atoms: N_34  and  C2_164 
REMARK       I    between atoms: C4_39  and  O4_112 
REMARK       I    between atoms: C1_40  and  O4_102 
REMARK       I    between atoms: C6_43  and  C5_172 
REMARK       I    between atoms: C6_43  and  O6_88 
REMARK       I    between atoms: O2_45  and  C2_63 
REMARK       I    between atoms: O2_45  and  S_108 
REMARK       I    between atoms: O1_46  and  C1_124 
REMARK       I    between atoms: O62_50  and  C6_140 
REMARK       I    between atoms: C4_52  and  O4_151 
REMARK       I    between atoms: O3_53  and  C3_123 
REMARK       I    between atoms: S2_56  and  O6_166 
REMARK       I    between atoms: C2_58  and  O2_167 
REMARK       I    between atoms: S1_62  and  N_105 
REMARK       I    between atoms: O61_64  and  C6_93 
REMARK       I    between atoms: O3_65  and  C3_131 
REMARK       I    between atoms: N_66  and  S1_149 
REMARK       I    between atoms: C5_68  and  C6_154 
REMARK       I    between atoms: O4_72  and  C1_144 
REMARK       I    between atoms: S1_74  and  N_85 
REMARK       I    between atoms: O4_79  and  C1_136 
REMARK       I    between atoms: O3_82  and  C3_147 
REMARK       I    between atoms: S_84  and  O2_169 
REMARK       I    between atoms: O2_86  and  C2_155 
REMARK       I    between atoms: O2_86  and  S_104 
REMARK       I    between atoms: C5_87  and  C6_140 
REMARK       I    between atoms: O6_88  and  S2_103 
REMARK       I    between atoms: O4_89  and  C4_94 
REMARK       I    between atoms: O4_89  and  C1_127 
REMARK       I    between atoms: C1_91  and  O4_151 
REMARK       I    between atoms: C3_92  and  O3_116 
REMARK       I    between atoms: C6_93  and  C5_109 
REMARK       I    between atoms: C2_98  and  O2_169 
REMARK       I    between atoms: C3_99  and  O3_133 
REMARK       I    between atoms: O62_101  and  C6_142 
REMARK       I    between atoms: N_105  and  C2_145 
REMARK       I    between atoms: N_106  and  C2_130 
REMARK       I    between atoms: N_106  and  S1_107 
REMARK       I    between atoms: O4_112  and  C1_173 
REMARK       I    between atoms: S_117  and  O2_134 
REMARK       I    between atoms: C5_119  and  C6_161 
REMARK       I    between atoms: C3_121  and  O3_175 
REMARK       I    between atoms: O62_129  and  C6_141 
REMARK       I    between atoms: S2_138  and  O6_165 
REMARK       I    between atoms: C6_141  and  C5_162 
REMARK       I    between atoms: C6_142  and  C5_174 
REMARK       I    between atoms: C6_161  and  O6_166 
ROOT
ATOM      1  O4  IDS d 205      24.382 125.613   6.763  0.00  0.00    -0.348 OA
ATOM      2  O61 IDS d 205      26.956 124.794   5.143  0.00  0.00    -0.648 OA
ATOM      3  O5  IDS d 205      26.994 126.667   7.132  0.00  0.00    -0.340 OA
ATOM      4  C6  IDS d 205      26.351 125.836   4.880  0.00  0.00     0.172 C 
ATOM      5  C5  IDS d 205      26.106 126.920   5.986  0.00  0.00     0.253 C 
ATOM      6  O2  IDS d 205      25.687 128.994   9.539  0.00  0.00    -0.244 OA
ATOM      7  O3S IDS d 205      25.713 128.855  11.960  0.00  0.00    -0.572 OA
ATOM      8  C2  IDS d 205      25.829 128.540   8.192  0.00  0.00     0.231 C 
ATOM      9  C1  IDS d 205      27.179 127.788   8.012  0.00  0.00     0.294 C 
ATOM     10  O1S IDS d 205      23.664 128.389  10.768  0.00  0.00    -0.572 OA
ATOM     11  C3  IDS d 205      24.625 127.629   7.907  0.00  0.00     0.185 C 
ATOM     12  S   IDS d 205      25.106 128.200  10.825  0.00  0.00     0.252 S 
ATOM     13  C4  IDS d 205      24.643 126.939   6.522  0.00  0.00     0.195 C 
ATOM     14  O3  IDS d 205      23.432 128.377   8.041  0.00  0.00    -0.390 OA
ATOM     15  O62 IDS d 205      25.947 125.982   3.740  0.00  0.00    -0.774 OA
ATOM     16  O2S IDS d 205      25.477 126.802  10.706  0.00  0.00    -0.572 OA
ATOM     17  H   IDS d 205      23.416 129.082   7.375  0.00  0.00     0.210 HD
ATOM     18  H   IDS d 205      25.483 126.761   3.503  0.00  0.00     0.167 HD
ATOM     19  O5  SGN d 204      31.659 129.536   6.650  0.00  0.00    -0.349 OA
ATOM     20  O4  SGN d 204      28.099 128.759   7.479  0.00  0.00    -0.348 OA
ATOM     21  C3  SGN d 204      29.649 127.635   5.857  0.00  0.00     0.173 C 
ATOM     22  O1S SGN d 204      33.701 126.020   4.830  0.00  0.00    -0.582 OA
ATOM     23  S2  SGN d 204      29.991 130.355  10.906  0.00  0.00     0.251 S 
ATOM     24  S1  SGN d 204      32.494 125.434   4.275  0.00  0.00     0.183 S 
ATOM     25  O5S SGN d 204      30.708 129.355  11.689  0.00  0.00    -0.572 OA
ATOM     26  N   SGN d 204      31.306 126.595   4.330  0.00  0.00    -0.189 NA
ATOM     27  O2S SGN d 204      32.000 124.316   5.049  0.00  0.00    -0.582 OA
ATOM     28  C5  SGN d 204      30.285 129.789   7.013  0.00  0.00     0.181 C 
ATOM     29  O3  SGN d 204      29.027 126.399   5.990  0.00  0.00    -0.391 OA
ATOM     30  C2  SGN d 204      31.129 127.380   5.585  0.00  0.00     0.160 C 
ATOM     31  O6S SGN d 204      30.601 131.678  11.000  0.00  0.00    -0.572 OA
ATOM     32  O3S SGN d 204      32.650 125.098   2.862  0.00  0.00    -0.582 OA
ATOM     33  O4S SGN d 204      28.560 130.365  11.177  0.00  0.00    -0.572 OA
ATOM     34  C4  SGN d 204      29.516 128.442   7.199  0.00  0.00     0.186 C 
ATOM     35  C6  SGN d 204      30.316 130.685   8.258  0.00  0.00     0.227 C 
ATOM     36  O6  SGN d 204      30.186 129.880   9.409  0.00  0.00    -0.254 OA
ATOM     37  C1  SGN d 204      31.826 128.752   5.434  0.00  0.00     0.282 C 
ATOM     38  H   SGN d 204      30.420 126.127   4.141  0.00  0.00     0.143 HD
ATOM     39  H   SGN d 204      29.444 125.903   6.712  0.00  0.00     0.210 HD
ATOM     40  O2S SGN d 202      28.427 137.842   0.648  0.00  0.00    -0.582 OA
ATOM     41  O1S SGN d 202      28.964 138.306  -1.658  0.00  0.00    -0.582 OA
ATOM     42  C5  SGN d 202      30.948 133.022  -1.852  0.00  0.00     0.181 C 
ATOM     43  O5S SGN d 202      26.740 131.037  -2.137  0.00  0.00    -0.572 OA
ATOM     44  C6  SGN d 202      30.490 131.666  -2.450  0.00  0.00     0.227 C 
ATOM     45  C2  SGN d 202      30.280 135.581  -0.621  0.00  0.00     0.160 C 
ATOM     46  C3  SGN d 202      31.151 134.536   0.153  0.00  0.00     0.173 C 
ATOM     47  C4  SGN d 202      30.697 133.122  -0.302  0.00  0.00     0.186 C 
ATOM     48  S2  SGN d 202      28.012 130.500  -2.604  0.00  0.00     0.251 S 
ATOM     49  O3S SGN d 202      30.180 139.391   0.089  0.00  0.00    -0.582 OA
ATOM     50  O6S SGN d 202      28.049 130.346  -4.048  0.00  0.00    -0.572 OA
ATOM     51  O1  SGN d 202      31.775 135.797  -2.592  0.00  0.00    -0.369 OA
ATOM     52  N   SGN d 202      30.617 136.985  -0.237  0.00  0.00    -0.189 NA
ATOM     53  O4S SGN d 202      28.399 129.305  -1.885  0.00  0.00    -0.572 OA
ATOM     54  O4  SGN d 202      31.477 132.118   0.408  0.00  0.00    -0.348 OA
ATOM     55  C1  SGN d 202      30.481 135.420  -2.170  0.00  0.00     0.278 C 
ATOM     56  O6  SGN d 202      29.076 131.613  -2.239  0.00  0.00    -0.254 OA
ATOM     57  O3  SGN d 202      30.936 134.683   1.550  0.00  0.00    -0.391 OA
ATOM     58  S1  SGN d 202      29.465 138.199  -0.304  0.00  0.00     0.183 S 
ATOM     59  O5  SGN d 202      30.196 134.063  -2.560  0.00  0.00    -0.350 OA
ATOM     60  H   SGN d 202      31.950 136.712  -2.321  0.00  0.00     0.212 HD
ATOM     61  H   SGN d 202      31.381 137.277  -0.847  0.00  0.00     0.143 HD
ATOM     62  H   SGN d 202      29.995 134.554   1.748  0.00  0.00     0.210 HD
ATOM     63  C3  SGN d 208      24.417 116.199  12.003  0.00  0.00     0.173 C 
ATOM     64  O2S SGN d 208      29.246 117.066  11.791  0.00  0.00    -0.582 OA
ATOM     65  C4  SGN d 208      23.111 116.163  12.795  0.00  0.00     0.186 C 
ATOM     66  O4S SGN d 208      21.554 115.296  15.754  0.00  0.00    -0.572 OA
ATOM     67  C2  SGN d 208      25.552 116.666  12.926  0.00  0.00     0.160 C 
ATOM     68  O5  SGN d 208      23.939 118.037  14.186  0.00  0.00    -0.349 OA
ATOM     69  C6  SGN d 208      21.537 117.719  14.164  0.00  0.00     0.227 C 
ATOM     70  O6S SGN d 208      20.235 116.841  17.074  0.00  0.00    -0.572 OA
ATOM     71  S1  SGN d 208      28.289 116.932  12.882  0.00  0.00     0.183 S 
ATOM     72  O4  SGN d 208      22.080 115.747  11.910  0.00  0.00    -0.348 OA
ATOM     73  N   SGN d 208      26.820 116.736  12.146  0.00  0.00    -0.189 NA
ATOM     74  O6  SGN d 208      21.858 117.680  15.520  0.00  0.00    -0.254 OA
ATOM     75  C1  SGN d 208      25.174 118.083  13.476  0.00  0.00     0.282 C 
ATOM     76  O3S SGN d 208      28.184 118.147  13.667  0.00  0.00    -0.582 OA
ATOM     77  S2  SGN d 208      21.538 116.534  16.512  0.00  0.00     0.251 S 
ATOM     78  O5S SGN d 208      22.604 116.613  17.491  0.00  0.00    -0.572 OA
ATOM     79  O1S SGN d 208      28.523 115.782  13.728  0.00  0.00    -0.582 OA
ATOM     80  O3  SGN d 208      24.710 114.899  11.513  0.00  0.00    -0.391 OA
ATOM     81  C5  SGN d 208      22.824 117.609  13.334  0.00  0.00     0.181 C 
ATOM     82  H   SGN d 208      26.716 117.519  11.501  0.00  0.00     0.143 HD
ATOM     83  H   SGN d 208      24.798 114.285  12.258  0.00  0.00     0.210 HD
ATOM     84  C3  IDS d 211      18.961 105.783  17.454  0.00  0.00     0.156 C 
ATOM     85  O3  IDS d 211      19.749 105.001  18.319  0.00  0.00    -0.393 OA
ATOM     86  C4  IDS d 211      17.616 106.111  18.159  0.00  0.00     0.077 C 
ATOM     87  O61 IDS d 211      14.888 107.011  17.895  0.00  0.00    -0.648 OA
ATOM     88  O3S IDS d 211      22.252 106.008  18.273  0.00  0.00    -0.572 OA
ATOM     89  O5  IDS d 211      17.728 108.425  16.935  0.00  0.00    -0.343 OA
ATOM     90  S   IDS d 211      22.367 106.468  16.908  0.00  0.00     0.252 S 
ATOM     91  C2  IDS d 211      19.709 107.031  17.094  0.00  0.00     0.228 C 
ATOM     92  O1S IDS d 211      22.925 105.460  16.019  0.00  0.00    -0.572 OA
ATOM     93  O2S IDS d 211      23.048 107.746  16.784  0.00  0.00    -0.572 OA
ATOM     94  O62 IDS d 211      15.199 108.902  18.751  0.00  0.00    -0.774 OA
ATOM     95  C6  IDS d 211      15.672 107.882  18.267  0.00  0.00     0.170 C 
ATOM     96  C1  IDS d 211      18.804 107.825  16.190  0.00  0.00     0.294 C 
ATOM     97  C5  IDS d 211      17.205 107.672  18.144  0.00  0.00     0.224 C 
ATOM     98  O2  IDS d 211      20.892 106.655  16.391  0.00  0.00    -0.244 OA
ATOM     99  H   IDS d 211      19.930 105.499  19.131  0.00  0.00     0.210 HD
ATOM    100  H   IDS d 211      15.766 109.587  19.046  0.00  0.00     0.167 HD
ATOM    101  O6  SGN d 210      20.868 106.296  12.978  0.00  0.00    -0.254 OA
ATOM    102  C4  SGN d 210      19.353 108.744  14.052  0.00  0.00     0.186 C 
ATOM    103  O5  SGN d 210      20.437 108.746  11.790  0.00  0.00    -0.349 OA
ATOM    104  O4S SGN d 210      22.662 105.225  11.810  0.00  0.00    -0.572 OA
ATOM    105  O5S SGN d 210      20.463 104.253  11.885  0.00  0.00    -0.572 OA
ATOM    106  O3  SGN d 210      17.417 110.068  14.422  0.00  0.00    -0.391 OA
ATOM    107  O6S SGN d 210      20.853 106.236  10.600  0.00  0.00    -0.572 OA
ATOM    108  C5  SGN d 210      20.713 108.688  13.237  0.00  0.00     0.181 C 
ATOM    109  O4  SGN d 210      19.572 108.751  15.466  0.00  0.00    -0.348 OA
ATOM    110  O2S SGN d 210      15.636 109.773  11.378  0.00  0.00    -0.582 OA
ATOM    111  N   SGN d 210      17.623 111.211  11.813  0.00  0.00    -0.189 NA
ATOM    112  S1  SGN d 210      16.155 111.094  11.083  0.00  0.00     0.183 S 
ATOM    113  S2  SGN d 210      21.243 105.456  11.742  0.00  0.00     0.251 S 
ATOM    114  C1  SGN d 210      19.728 109.920  11.399  0.00  0.00     0.282 C 
ATOM    115  C2  SGN d 210      18.352 110.002  12.194  0.00  0.00     0.160 C 
ATOM    116  C3  SGN d 210      18.631 110.016  13.704  0.00  0.00     0.173 C 
ATOM    117  O1S SGN d 210      16.354 111.323   9.667  0.00  0.00    -0.582 OA
ATOM    118  C6  SGN d 210      21.555 107.414  13.479  0.00  0.00     0.227 C 
ATOM    119  O3S SGN d 210      15.370 112.140  11.700  0.00  0.00    -0.582 OA
ATOM    120  H   SGN d 210      17.604 110.076  15.374  0.00  0.00     0.210 HD
ATOM    121  H   SGN d 210      18.227 111.730  11.176  0.00  0.00     0.143 HD
ATOM    122  S1  SGN d 206      20.454 126.616   8.606  0.00  0.00     0.183 S 
ATOM    123  O4  SGN d 206      25.097 122.418   9.131  0.00  0.00    -0.348 OA
ATOM    124  C6  SGN d 206      25.019 121.773   6.196  0.00  0.00     0.227 C 
ATOM    125  N   SGN d 206      22.054 126.164   8.489  0.00  0.00    -0.189 NA
ATOM    126  C1  SGN d 206      23.137 124.978   6.540  0.00  0.00     0.282 C 
ATOM    127  O2S SGN d 206      20.157 126.671  10.047  0.00  0.00    -0.582 OA
ATOM    128  O5S SGN d 206      22.232 120.087   4.395  0.00  0.00    -0.572 OA
ATOM    129  O4S SGN d 206      24.545 119.582   3.961  0.00  0.00    -0.572 OA
ATOM    130  O6S SGN d 206      23.661 121.803   3.512  0.00  0.00    -0.572 OA
ATOM    131  O5  SGN d 206      23.500 123.684   6.028  0.00  0.00    -0.349 OA
ATOM    132  O1S SGN d 206      19.640 125.655   7.880  0.00  0.00    -0.582 OA
ATOM    133  C3  SGN d 206      23.580 124.249   8.878  0.00  0.00     0.173 C 
ATOM    134  C4  SGN d 206      24.044 122.890   8.313  0.00  0.00     0.186 C 
ATOM    135  S2  SGN d 206      23.573 120.601   4.325  0.00  0.00     0.251 S 
ATOM    136  C5  SGN d 206      24.570 123.086   6.851  0.00  0.00     0.181 C 
ATOM    137  O3S SGN d 206      20.411 127.931   7.981  0.00  0.00    -0.582 OA
ATOM    138  C2  SGN d 206      22.465 124.825   7.960  0.00  0.00     0.160 C 
ATOM    139  O6  SGN d 206      23.896 121.049   5.787  0.00  0.00    -0.254 OA
ATOM    140  O3  SGN d 206      23.075 124.063  10.193  0.00  0.00    -0.391 OA
ATOM    141  H   SGN d 206      22.438 126.228   9.432  0.00  0.00     0.143 HD
ATOM    142  H   SGN d 206      22.329 123.444  10.168  0.00  0.00     0.210 HD
ATOM    143  S   IDS d 207      27.311 118.959   8.110  0.00  0.00     0.252 S 
ATOM    144  C1  IDS d 207      25.134 121.086   9.484  0.00  0.00     0.294 C 
ATOM    145  O62 IDS d 207      23.422 121.885  13.795  0.00  0.00    -0.648 OA
ATOM    146  C4  IDS d 207      25.697 120.080  12.252  0.00  0.00     0.195 C 
ATOM    147  O1S IDS d 207      27.873 117.991   9.038  0.00  0.00    -0.572 OA
ATOM    148  C2  IDS d 207      26.588 120.847   9.969  0.00  0.00     0.231 C 
ATOM    149  O61 IDS d 207      22.391 120.565  12.532  0.00  0.00    -0.774 OA
ATOM    150  O3  IDS d 207      27.991 119.686  11.505  0.00  0.00    -0.390 OA
ATOM    151  C6  IDS d 207      23.410 121.210  12.783  0.00  0.00     0.172 C 
ATOM    152  C5  IDS d 207      24.628 121.149  11.838  0.00  0.00     0.253 C 
ATOM    153  O3S IDS d 207      28.101 119.103   6.906  0.00  0.00    -0.572 OA
ATOM    154  O5  IDS d 207      24.181 120.814  10.503  0.00  0.00    -0.340 OA
ATOM    155  C3  IDS d 207      26.647 119.801  11.056  0.00  0.00     0.185 C 
ATOM    156  O4  IDS d 207      24.981 118.908  12.397  0.00  0.00    -0.348 OA
ATOM    157  O2S IDS d 207      25.920 118.699   7.843  0.00  0.00    -0.572 OA
ATOM    158  O2  IDS d 207      27.411 120.378   8.882  0.00  0.00    -0.244 OA
ATOM    159  H   IDS d 207      22.350 120.035  11.760  0.00  0.00     0.167 HD
ATOM    160  H   IDS d 207      28.042 119.016  12.204  0.00  0.00     0.210 HD
ATOM    161  O1S IDS d 203      32.380 126.915   0.185  0.00  0.00    -0.572 OA
ATOM    162  C2  IDS d 203      31.831 129.837   1.179  0.00  0.00     0.231 C 
ATOM    163  O61 IDS d 203      29.010 132.091   4.583  0.00  0.00    -0.648 OA
ATOM    164  C4  IDS d 203      32.016 130.509   3.713  0.00  0.00     0.195 C 
ATOM    165  C1  IDS d 203      30.807 130.990   0.981  0.00  0.00     0.294 C 
ATOM    166  O62 IDS d 203      30.754 132.989   5.311  0.00  0.00    -0.774 OA
ATOM    167  C5  IDS d 203      31.038 131.677   3.320  0.00  0.00     0.253 C 
ATOM    168  C3  IDS d 203      32.756 129.972   2.445  0.00  0.00     0.185 C 
ATOM    169  O4  IDS d 203      31.260 129.443   4.302  0.00  0.00    -0.348 OA
ATOM    170  S   IDS d 203      31.032 127.441   0.250  0.00  0.00     0.252 S 
ATOM    171  O3  IDS d 203      33.820 130.864   2.140  0.00  0.00    -0.390 OA
ATOM    172  O2  IDS d 203      31.070 128.641   1.265  0.00  0.00    -0.244 OA
ATOM    173  C6  IDS d 203      30.213 132.288   4.472  0.00  0.00     0.172 C 
ATOM    174  O5  IDS d 203      30.160 131.258   2.241  0.00  0.00    -0.340 OA
ATOM    175  O2S IDS d 203      30.080 126.504   0.815  0.00  0.00    -0.572 OA
ATOM    176  O3S IDS d 203      30.591 127.983  -1.004  0.00  0.00    -0.572 OA
ATOM    177  H   IDS d 203      31.674 133.160   5.256  0.00  0.00     0.167 HD
ATOM    178  H   IDS d 203      33.459 131.741   1.938  0.00  0.00     0.210 HD
ATOM    179  O3S IDS d 209      18.778 114.386  13.885  0.00  0.00    -0.572 OA
ATOM    180  O3  IDS d 209      18.637 113.119  10.106  0.00  0.00    -0.390 OA
ATOM    181  O1S IDS d 209      17.949 116.613  13.421  0.00  0.00    -0.572 OA
ATOM    182  O61 IDS d 209      23.573 110.919  10.304  0.00  0.00    -0.648 OA
ATOM    183  O5  IDS d 209      22.089 113.460  12.335  0.00  0.00    -0.340 OA
ATOM    184  O2S IDS d 209      16.843 114.714  12.453  0.00  0.00    -0.572 OA
ATOM    185  O2  IDS d 209      19.082 115.416  11.641  0.00  0.00    -0.244 OA
ATOM    186  O4  IDS d 209      20.544 111.034  11.714  0.00  0.00    -0.348 OA
ATOM    187  C4  IDS d 209      20.734 112.103  10.790  0.00  0.00     0.195 C 
ATOM    188  O62 IDS d 209      23.847 111.457  12.298  0.00  0.00    -0.774 OA
ATOM    189  S   IDS d 209      18.097 115.260  12.927  0.00  0.00     0.252 S 
ATOM    190  C3  IDS d 209      19.645 113.156  11.112  0.00  0.00     0.185 C 
ATOM    191  C1  IDS d 209      21.311 114.658  12.275  0.00  0.00     0.294 C 
ATOM    192  C6  IDS d 209      23.266 111.630  11.244  0.00  0.00     0.172 C 
ATOM    193  C2  IDS d 209      20.180 114.571  11.235  0.00  0.00     0.231 C 
ATOM    194  C5  IDS d 209      22.166 112.699  11.102  0.00  0.00     0.253 C 
ATOM    195  H   IDS d 209      18.294 112.215  10.026  0.00  0.00     0.210 HD
ATOM    196  H   IDS d 209      23.636 111.986  13.042  0.00  0.00     0.167 HD
ENDROOT
TORSDOF 74
