REMARK  32 active torsions:
REMARK  status: ('A' for Active; 'I' for Inactive)
REMARK    1 I    between atoms: C2_1  and  O2_40 
REMARK    2 I    between atoms: C4_2  and  O4_58 
REMARK    3 I    between atoms: C6_3  and  C5_24 
REMARK    4 I    between atoms: C6_3  and  O6_18 
REMARK    5 I    between atoms: N2_4  and  C2_23 
REMARK      I    between atoms: N2_4  and  C7_60 
REMARK    6 I    between atoms: C6_5  and  C5_32 
REMARK    7 I    between atoms: C6_5  and  O6_49 
REMARK    8 I    between atoms: C1_6  and  O3_46 
REMARK    9 I    between atoms: C2_7  and  O2_69 
REMARK   10 I    between atoms: C2_8  and  O2_12 
REMARK   11 I    between atoms: C3_10  and  O3_75 
REMARK   12 I    between atoms: C1_11  and  O3_35 
REMARK   13 I    between atoms: C6_14  and  C5_74 
REMARK   14 I    between atoms: C4_16  and  O4_77 
REMARK   15 I    between atoms: O6_19  and  C6_61 
REMARK   16 I    between atoms: C1_21  and  O1_45 
REMARK   17 I    between atoms: C5_25  and  C6_61 
REMARK   18 I    between atoms: C2_26  and  N2_54 
REMARK   19 I    between atoms: N2_28  and  C2_42 
REMARK      I    between atoms: N2_28  and  C7_57 
REMARK   20 I    between atoms: C3_29  and  O3_30 
REMARK   21 I    between atoms: O3_30  and  C1_36 
REMARK   22 I    between atoms: C5_31  and  C6_55 
REMARK   23 I    between atoms: O4_34  and  C4_63 
REMARK   24 I    between atoms: O3_35  and  C3_64 
REMARK   25 I    between atoms: C3_39  and  O3_62 
REMARK   26 I    between atoms: O4_41  and  C4_78 
REMARK   27 I    between atoms: O4_41  and  C1_51 
REMARK   28 I    between atoms: C5_44  and  C6_67 
REMARK   29 I    between atoms: O3_46  and  C3_56 
REMARK   30 I    between atoms: C4_47  and  O4_72 
REMARK   31 I    between atoms: O3_52  and  C3_73 
REMARK      I    between atoms: N2_54  and  C7_65 
REMARK   32 I    between atoms: C1_66  and  O4_72 
ROOT
ATOM      1  O5  NAG d2002      10.432  -9.471  31.498  0.00  0.00    -0.349 OA
ATOM      2  C2  NAG d2002       8.458 -10.940  32.182  0.00  0.00     0.171 C 
ATOM      3  C3  NAG d2002       7.511  -9.982  31.424  0.00  0.00     0.183 C 
ATOM      4  C5  NAG d2002       9.530  -8.516  30.803  0.00  0.00     0.179 C 
ATOM      5  C1  NAG d2002       9.871 -10.885  31.481  0.00  0.00     0.286 C 
ATOM      6  C4  NAG d2002       8.098  -8.520  31.484  0.00  0.00     0.180 C 
ENDROOT
BRANCH   3   7
ATOM      7  O3  NAG d2002       6.133 -10.059  32.019  0.00  0.00    -0.348 OA
BRANCH   7   8
ATOM      8  C1  BDP d2003       5.207 -10.217  30.946  0.00  0.00     0.292 C 
ATOM      9  C2  BDP d2003       3.694 -10.401  31.332  0.00  0.00     0.204 C 
ATOM     10  C3  BDP d2003       2.932 -10.545  29.945  0.00  0.00     0.183 C 
ATOM     11  C4  BDP d2003       3.137  -9.160  29.197  0.00  0.00     0.195 C 
ATOM     12  C5  BDP d2003       4.653  -8.801  28.858  0.00  0.00     0.257 C 
ATOM     13  O5  BDP d2003       5.394  -9.035  30.142  0.00  0.00    -0.340 OA
BRANCH   9  14
ATOM     14  O2  BDP d2003       3.569 -11.609  32.120  0.00  0.00    -0.388 OA
ATOM     15  H   BDP d2003       3.923 -12.360  31.619  0.00  0.00     0.210 HD
ENDBRANCH   9  14
BRANCH  10  16
ATOM     16  O3  BDP d2003       1.532 -10.750  30.216  0.00  0.00    -0.390 OA
ATOM     17  H   BDP d2003       1.194 -10.013  30.749  0.00  0.00     0.210 HD
ENDBRANCH  10  16
BRANCH  11  18
ATOM     18  O4  BDP d2003       2.656  -8.869  27.821  0.00  0.00    -0.348 OA
BRANCH  18  19
ATOM     19  C1  NAG d2004       1.452  -8.971  27.095  0.00  0.00     0.286 C 
ATOM     20  O5  NAG d2004       1.112 -10.420  26.905  0.00  0.00    -0.349 OA
ATOM     21  C5  NAG d2004      -0.092 -10.601  26.041  0.00  0.00     0.179 C 
ATOM     22  C4  NAG d2004       0.238  -9.999  24.605  0.00  0.00     0.180 C 
ATOM     23  C3  NAG d2004       0.573  -8.457  24.774  0.00  0.00     0.183 C 
ATOM     24  C2  NAG d2004       1.789  -8.336  25.708  0.00  0.00     0.171 C 
BRANCH  21  25
ATOM     25  C6  NAG d2004      -0.400 -12.106  25.926  0.00  0.00     0.198 C 
BRANCH  25  26
ATOM     26  O6  NAG d2004      -0.337 -12.608  24.573  0.00  0.00    -0.398 OA
ATOM     27  H   NAG d2004      -1.005 -12.161  24.031  0.00  0.00     0.209 HD
ENDBRANCH  25  26
ENDBRANCH  21  25
BRANCH  22  28
ATOM     28  O4  NAG d2004      -0.935 -10.213  23.732  0.00  0.00    -0.390 OA
ATOM     29  H   NAG d2004      -1.712  -9.784  24.123  0.00  0.00     0.210 HD
ENDBRANCH  22  28
BRANCH  23  30
ATOM     30  O3  NAG d2004       0.926  -7.864  23.467  0.00  0.00    -0.348 OA
BRANCH  30  31
ATOM     31  C1  BDP d2005      -0.110  -7.440  22.615  0.00  0.00     0.293 C 
ATOM     32  C2  BDP d2005       0.507  -6.902  21.379  0.00  0.00     0.209 C 
ATOM     33  C3  BDP d2005      -0.705  -6.525  20.514  0.00  0.00     0.224 C 
ATOM     34  C4  BDP d2005      -2.030  -7.153  20.366  0.00  0.00     0.197 C 
ATOM     35  O4  BDP d2005      -2.617  -7.244  19.466  0.00  0.00    -0.292 OA
ATOM     36  C5  BDP d2005      -2.096  -8.135  21.289  0.00  0.00     0.297 C 
ATOM     37  O5  BDP d2005      -0.946  -8.523  22.189  0.00  0.00    -0.335 OA
BRANCH  32  38
ATOM     38  O2  BDP d2005       1.318  -5.791  21.734  0.00  0.00    -0.388 OA
ATOM     39  H   BDP d2005       0.784  -5.142  22.219  0.00  0.00     0.210 HD
ENDBRANCH  32  38
BRANCH  33  40
ATOM     40  O3  BDP d2005      -0.193  -6.084  19.210  0.00  0.00    -0.385 OA
ATOM     41  H   BDP d2005       0.678  -5.674  19.327  0.00  0.00     0.210 HD
ENDBRANCH  33  40
BRANCH  36  42
ATOM     42  C6  BDP d2005      -2.784  -9.373  21.081  0.00  0.00     0.211 C 
ATOM     43  O6B BDP d2005      -3.642  -9.638  21.986  0.00  0.00    -0.646 OA
ATOM     44  O6A BDP d2005      -2.413 -10.054  20.066  0.00  0.00    -0.646 OA
ENDBRANCH  36  42
ENDBRANCH  30  31
ENDBRANCH  23  30
BRANCH  24  45
ATOM     45  N2  NAG d2004       2.134  -6.830  25.859  0.00  0.00    -0.349 N 
ATOM     46  C7  NAG d2004       1.625  -5.944  26.877  0.00  0.00     0.214 C 
ATOM     47  O7  NAG d2004       0.837  -6.245  27.796  0.00  0.00    -0.274 OA
ATOM     48  C8  NAG d2004       2.150  -4.531  26.730  0.00  0.00     0.117 C 
ATOM     49  H   NAG d2004       2.756  -6.445  25.201  0.00  0.00     0.163 HD
ENDBRANCH  24  45
ENDBRANCH  18  19
ENDBRANCH  11  18
BRANCH  12  50
ATOM     50  C6  BDP d2003       4.950  -7.640  28.245  0.00  0.00     0.206 C 
ATOM     51  O6A BDP d2003       5.268  -7.773  27.043  0.00  0.00    -0.646 OA
ATOM     52  O6B BDP d2003       4.827  -6.597  28.958  0.00  0.00    -0.646 OA
ENDBRANCH  12  50
ENDBRANCH   7   8
ENDBRANCH   3   7
BRANCH   2  53
ATOM     53  N2  NAG d2002       7.864 -12.335  32.155  0.00  0.00    -0.349 N 
ATOM     54  C7  NAG d2002       7.197 -12.844  33.290  0.00  0.00     0.214 C 
ATOM     55  C8  NAG d2002       6.650 -14.218  33.062  0.00  0.00     0.117 C 
ATOM     56  O7  NAG d2002       7.047 -12.250  34.360  0.00  0.00    -0.274 OA
ATOM     57  H   NAG d2002       7.944 -12.887  31.344  0.00  0.00     0.163 HD
ENDBRANCH   2  53
BRANCH   6  58
ATOM     58  O4  NAG d2002       7.260  -7.578  30.771  0.00  0.00    -0.390 OA
ATOM     59  H   NAG d2002       6.377  -7.564  31.171  0.00  0.00     0.210 HD
ENDBRANCH   6  58
BRANCH   5  60
ATOM     60  O4  BDP d2001      10.768 -11.753  32.147  0.00  0.00    -0.348 OA
BRANCH  60  61
ATOM     61  C4  BDP d2001      12.176 -11.942  31.740  0.00  0.00     0.195 C 
ATOM     62  C3  BDP d2001      13.169 -11.142  32.664  0.00  0.00     0.183 C 
ATOM     63  C2  BDP d2001      14.636 -11.459  32.225  0.00  0.00     0.204 C 
ATOM     64  C1  BDP d2001      14.823 -13.005  32.453  0.00  0.00     0.292 C 
ATOM     65  O5  BDP d2001      13.881 -13.770  31.641  0.00  0.00    -0.340 OA
ATOM     66  C5  BDP d2001      12.367 -13.562  31.770  0.00  0.00     0.257 C 
BRANCH  62  67
ATOM     67  O3  BDP d2001      12.911  -9.722  32.507  0.00  0.00    -0.390 OA
ATOM     68  H   BDP d2001      13.035  -9.472  31.578  0.00  0.00     0.210 HD
ENDBRANCH  62  67
BRANCH  63  69
ATOM     69  O2  BDP d2001      15.575 -10.715  33.054  0.00  0.00    -0.388 OA
ATOM     70  H   BDP d2001      15.436 -10.945  33.986  0.00  0.00     0.210 HD
ENDBRANCH  63  69
BRANCH  64  71
ATOM     71  O3  NAG d2000      16.118 -13.448  32.110  0.00  0.00    -0.348 OA
BRANCH  71  72
ATOM     72  C3  NAG d2000      16.593 -14.687  32.737  0.00  0.00     0.183 C 
ATOM     73  C4  NAG d2000      16.428 -15.873  31.714  0.00  0.00     0.180 C 
ATOM     74  C5  NAG d2000      16.955 -17.212  32.384  0.00  0.00     0.179 C 
ATOM     75  O5  NAG d2000      18.393 -17.056  32.775  0.00  0.00    -0.349 OA
ATOM     76  C1  NAG d2000      18.584 -15.887  33.735  0.00  0.00     0.282 C 
ATOM     77  C2  NAG d2000      18.112 -14.542  33.092  0.00  0.00     0.171 C 
BRANCH  73  78
ATOM     78  O4  NAG d2000      15.028 -16.071  31.361  0.00  0.00    -0.390 OA
ATOM     79  H   NAG d2000      14.521 -16.289  32.159  0.00  0.00     0.210 HD
ENDBRANCH  73  78
BRANCH  74  80
ATOM     80  C6  NAG d2000      16.849 -18.434  31.428  0.00  0.00     0.198 C 
BRANCH  80  81
ATOM     81  O6  NAG d2000      16.331 -19.635  32.074  0.00  0.00    -0.398 OA
ATOM     82  H   NAG d2000      16.290 -20.357  31.428  0.00  0.00     0.209 HD
ENDBRANCH  80  81
ENDBRANCH  74  80
BRANCH  76  83
ATOM     83  O1  NAG d2000      19.962 -15.807  34.060  0.00  0.00    -0.369 OA
ATOM     84  H   NAG d2000      20.477 -15.660  33.251  0.00  0.00     0.212 HD
ENDBRANCH  76  83
BRANCH  77  85
ATOM     85  N2  NAG d2000      18.311 -13.409  34.092  0.00  0.00    -0.349 N 
ATOM     86  C7  NAG d2000      18.543 -12.071  33.705  0.00  0.00     0.214 C 
ATOM     87  C8  NAG d2000      18.689 -11.146  34.888  0.00  0.00     0.117 C 
ATOM     88  O7  NAG d2000      18.616 -11.659  32.530  0.00  0.00    -0.274 OA
ATOM     89  H   NAG d2000      18.276 -13.620  35.053  0.00  0.00     0.163 HD
ENDBRANCH  77  85
ENDBRANCH  71  72
ENDBRANCH  64  71
BRANCH  66  90
ATOM     90  C6  BDP d2001      11.630 -14.355  30.949  0.00  0.00     0.206 C 
ATOM     91  O6B BDP d2001      10.715 -13.771  30.290  0.00  0.00    -0.646 OA
ATOM     92  O6A BDP d2001      11.997 -15.560  30.926  0.00  0.00    -0.646 OA
ENDBRANCH  66  90
ENDBRANCH  60  61
ENDBRANCH   5  60
BRANCH   4  93
ATOM     93  C6  NAG d2002      10.188  -7.130  30.842  0.00  0.00     0.198 C 
BRANCH  93  94
ATOM     94  O6  NAG d2002      10.094  -6.495  32.134  0.00  0.00    -0.398 OA
ATOM     95  H   NAG d2002       9.161  -6.358  32.360  0.00  0.00     0.209 HD
ENDBRANCH  93  94
ENDBRANCH   4  93
TORSDOF 32
