REMARK  0 active torsions:
REMARK  status: ('A' for Active; 'I' for Inactive)
REMARK       I    between atoms: C1_1  and  O1_36 
REMARK       I    between atoms: C5_2  and  C6_16 
REMARK       I    between atoms: O6_5  and  C6_48 
REMARK       I    between atoms: O6_5  and  S2_24 
REMARK       I    between atoms: C3_9  and  O3_14 
REMARK       I    between atoms: S1_10  and  N_31 
REMARK       I    between atoms: C4_11  and  O1_36 
REMARK       I    between atoms: N_13  and  C2_15 
REMARK       I    between atoms: N_13  and  S1_49 
REMARK       I    between atoms: C6_16  and  O62_32 
REMARK       I    between atoms: O6_19  and  C6_43 
REMARK       I    between atoms: O6_19  and  S2_28 
REMARK       I    between atoms: C1_21  and  O1_30 
REMARK       I    between atoms: S_25  and  O2_45 
REMARK       I    between atoms: C3_26  and  O3_35 
REMARK       I    between atoms: C2_27  and  N_31 
REMARK       I    between atoms: C5_33  and  C6_43 
REMARK       I    between atoms: O4_38  and  C4_47 
REMARK       I    between atoms: O4_39  and  C1_40 
REMARK       I    between atoms: O4_39  and  C4_52 
REMARK       I    between atoms: O2_45  and  C2_55 
REMARK       I    between atoms: O3_46  and  C3_51 
REMARK       I    between atoms: C6_48  and  C5_54 
ROOT
ATOM      1  C1  SGN d 501      29.346  24.902 147.750  0.00  0.00     0.282 C 
ATOM      2  O4S SGN d 501      32.114  27.424 152.263  0.00  0.00    -0.572 OA
ATOM      3  O5  SGN d 501      30.175  25.848 148.433  0.00  0.00    -0.349 OA
ATOM      4  O6  SGN d 501      31.823  27.367 149.618  0.00  0.00    -0.254 OA
ATOM      5  O3S SGN d 501      25.011  25.320 148.083  0.00  0.00    -0.582 OA
ATOM      6  O1S SGN d 501      25.296  22.961 147.652  0.00  0.00    -0.582 OA
ATOM      7  S1  SGN d 501      25.458  24.320 147.087  0.00  0.00     0.183 S 
ATOM      8  S2  SGN d 501      31.909  28.325 151.105  0.00  0.00     0.251 S 
ATOM      9  C2  SGN d 501      27.959  25.494 147.494  0.00  0.00     0.160 C 
ATOM     10  N   SGN d 501      27.163  24.586 146.688  0.00  0.00    -0.189 NA
ATOM     11  O5S SGN d 501      30.644  29.075 151.281  0.00  0.00    -0.572 OA
ATOM     12  O1  SGN d 501      29.956  24.468 146.536  0.00  0.00    -0.348 OA
ATOM     13  O4  SGN d 501      29.146  29.007 146.899  0.00  0.00    -0.390 OA
ATOM     14  O6S SGN d 501      33.040  29.279 151.017  0.00  0.00    -0.572 OA
ATOM     15  O3  SGN d 501      26.763  27.447 146.738  0.00  0.00    -0.391 OA
ATOM     16  C4  SGN d 501      28.992  27.765 147.588  0.00  0.00     0.179 C 
ATOM     17  C6  SGN d 501      31.367  27.975 148.411  0.00  0.00     0.227 C 
ATOM     18  C3  SGN d 501      28.046  26.857 146.812  0.00  0.00     0.172 C 
ATOM     19  O2S SGN d 501      24.638  24.451 145.860  0.00  0.00    -0.582 OA
ATOM     20  C5  SGN d 501      30.345  27.078 147.721  0.00  0.00     0.181 C 
ATOM     21  H   SGN d 501      27.191  24.938 145.731  0.00  0.00     0.143 HD
ATOM     22  H   SGN d 501      28.282  29.441 146.817  0.00  0.00     0.210 HD
ATOM     23  H   SGN d 501      26.167  26.863 146.243  0.00  0.00     0.210 HD
ATOM     24  C5  IDS d 502      32.210  23.443 146.531  0.00  0.00     0.253 C 
ATOM     25  C3  IDS d 502      30.099  22.175 145.793  0.00  0.00     0.185 C 
ATOM     26  C4  IDS d 502      30.688  23.251 146.683  0.00  0.00     0.195 C 
ATOM     27  O3  IDS d 502      28.927  21.658 146.388  0.00  0.00    -0.390 OA
ATOM     28  C6  IDS d 502      32.476  24.923 146.295  0.00  0.00     0.172 C 
ATOM     29  O5  IDS d 502      32.812  22.822 145.378  0.00  0.00    -0.340 OA
ATOM     30  O2S IDS d 502      32.056  18.415 146.498  0.00  0.00    -0.572 OA
ATOM     31  O61 IDS d 502      33.187  25.550 147.106  0.00  0.00    -0.648 OA
ATOM     32  S   IDS d 502      30.963  18.340 145.500  0.00  0.00     0.252 S 
ATOM     33  O62 IDS d 502      32.052  25.435 145.232  0.00  0.00    -0.774 OA
ATOM     34  O1S IDS d 502      29.771  17.708 146.111  0.00  0.00    -0.572 OA
ATOM     35  C1  IDS d 502      32.281  21.606 144.837  0.00  0.00     0.294 C 
ATOM     36  O3S IDS d 502      31.415  17.536 144.344  0.00  0.00    -0.572 OA
ATOM     37  O2  IDS d 502      30.547  19.970 144.959  0.00  0.00    -0.244 OA
ATOM     38  C2  IDS d 502      31.121  21.076 145.648  0.00  0.00     0.231 C 
ATOM     39  H   IDS d 502      29.142  21.288 147.259  0.00  0.00     0.210 HD
ATOM     40  H   IDS d 502      31.520  24.930 144.649  0.00  0.00     0.167 HD
ATOM     41  O4S SGN d 503      29.763  22.075 141.914  0.00  0.00    -0.572 OA
ATOM     42  O2S SGN d 503      40.102  21.621 143.327  0.00  0.00    -0.582 OA
ATOM     43  N   SGN d 503      37.747  20.438 142.996  0.00  0.00    -0.189 NA
ATOM     44  C2  SGN d 503      36.347  20.530 142.644  0.00  0.00     0.160 C 
ATOM     45  O1S SGN d 503      39.018  21.871 141.175  0.00  0.00    -0.582 OA
ATOM     46  O6  SGN d 503      32.193  21.049 141.793  0.00  0.00    -0.254 OA
ATOM     47  O6S SGN d 503      31.194  22.794 140.091  0.00  0.00    -0.572 OA
ATOM     48  C1  SGN d 503      35.938  19.313 141.829  0.00  0.00     0.278 C 
ATOM     49  C3  SGN d 503      35.513  20.623 143.908  0.00  0.00     0.173 C 
ATOM     50  S2  SGN d 503      30.784  21.652 140.933  0.00  0.00     0.251 S 
ATOM     51  O3S SGN d 503      38.161  23.054 143.100  0.00  0.00    -0.582 OA
ATOM     52  O1  SGN d 503      36.215  18.120 142.556  0.00  0.00    -0.369 OA
ATOM     53  C5  SGN d 503      33.683  19.450 142.669  0.00  0.00     0.181 C 
ATOM     54  O3  SGN d 503      35.832  21.800 144.618  0.00  0.00    -0.391 OA
ATOM     55  O4  SGN d 503      33.279  20.595 144.741  0.00  0.00    -0.348 OA
ATOM     56  C6  SGN d 503      32.275  19.674 142.150  0.00  0.00     0.227 C 
ATOM     57  O5S SGN d 503      30.233  20.573 140.096  0.00  0.00    -0.572 OA
ATOM     58  S1  SGN d 503      38.804  21.804 142.636  0.00  0.00     0.183 S 
ATOM     59  O5  SGN d 503      34.547  19.404 141.532  0.00  0.00    -0.350 OA
ATOM     60  C4  SGN d 503      34.044  20.645 143.539  0.00  0.00     0.186 C 
ATOM     61  H   SGN d 503      38.127  19.628 142.507  0.00  0.00     0.143 HD
ATOM     62  H   SGN d 503      35.718  18.126 143.389  0.00  0.00     0.212 HD
ATOM     63  H   SGN d 503      35.645  22.573 144.063  0.00  0.00     0.210 HD
ENDROOT
TORSDOF 23
