REMARK WARNING: 32 MAX_TORS EXCEEDED!!!
REMARK  33 active torsions:
REMARK  status: ('A' for Active; 'I' for Inactive)
REMARK    1 I    between atoms: O2S_2  and  S1_14 
REMARK    2 I    between atoms: C3_4  and  O3_21 
REMARK    3 I    between atoms: C1_5  and  O1_8 
REMARK    4 I    between atoms: O3_7  and  C3_31 
REMARK    5 I    between atoms: O1_8  and  C4_60 
REMARK    6 I    between atoms: O4_9  and  C1_22 
REMARK    7 I    between atoms: O4_9  and  C4_41 
REMARK    8 I    between atoms: O1S_12  and  S1_14 
REMARK    9 I    between atoms: S2_13  and  O6_47 
REMARK   10 I    between atoms: S1_14  and  N_62 
REMARK   11 I    between atoms: S1_14  and  O3S_59 
REMARK   12 I    between atoms: C1_15  and  O1_19 
REMARK   13 I    between atoms: O1S_16  and  S1_57 
REMARK   14 I    between atoms: S2_17  and  O6_38 
REMARK   15 I    between atoms: O3S_18  and  S1_57 
REMARK   16 I    between atoms: C6_20  and  C5_24 
REMARK   17 I    between atoms: C6_20  and  O6_38 
REMARK   18 I    between atoms: C5_25  and  C6_32 
REMARK   19 I    between atoms: C2_26  and  N_62 
REMARK   20 I    between atoms: S_28  and  O2_34 
REMARK   21 I    between atoms: S_29  and  O2_65 
REMARK   22 I    between atoms: N_30  and  C2_66 
REMARK   23 I    between atoms: N_30  and  S1_57 
REMARK   24 I    between atoms: C6_32  and  O6_47 
REMARK   25 I    between atoms: O2_34  and  C2_43 
REMARK   26 I    between atoms: C6_35  and  C5_40 
REMARK   27 I    between atoms: O2S_37  and  S1_57 
REMARK   28 I    between atoms: C3_46  and  O3_67 
REMARK   29 I    between atoms: O3_48  and  C3_64 
REMARK   30 I    between atoms: O4_52  and  C1_63 
REMARK   31 I    between atoms: O4_52  and  C4_56 
REMARK   32 I    between atoms: C6_53  and  C5_61 
REMARK   33 I    between atoms: O2_65  and  C2_70 
ROOT
ATOM      1  O5  IDS d 903       3.386  55.397 -15.837  0.00  0.00    -0.340 OA
ATOM      2  C3  IDS d 903       2.267  53.785 -14.090  0.00  0.00     0.185 C 
ATOM      3  C4  IDS d 903       1.539  55.107 -14.366  0.00  0.00     0.195 C 
ATOM      4  C5  IDS d 903       2.484  56.125 -15.018  0.00  0.00     0.257 C 
ATOM      5  C1  IDS d 903       4.356  54.677 -15.060  0.00  0.00     0.294 C 
ATOM      6  C2  IDS d 903       3.714  54.099 -13.791  0.00  0.00     0.231 C 
ENDROOT
BRANCH   3   7
ATOM      7  O1  SGN d 902       0.459  54.866 -15.269  0.00  0.00    -0.348 OA
BRANCH   7   8
ATOM      8  C1  SGN d 902      -0.649  54.144 -14.727  0.00  0.00     0.282 C 
ATOM      9  C2  SGN d 902      -1.706  53.954 -15.812  0.00  0.00     0.157 C 
ATOM     10  C3  SGN d 902      -2.281  55.309 -16.204  0.00  0.00     0.173 C 
ATOM     11  C4  SGN d 902      -2.878  55.960 -14.964  0.00  0.00     0.186 C 
ATOM     12  C5  SGN d 902      -1.793  56.109 -13.896  0.00  0.00     0.181 C 
ATOM     13  O5  SGN d 902      -1.239  54.816 -13.606  0.00  0.00    -0.349 OA
BRANCH   9  14
ATOM     14  N   SGN d 902      -1.103  53.330 -16.972  0.00  0.00    -0.210 NA
ATOM     15  H   SGN d 902      -0.197  53.778 -17.112  0.00  0.00     0.140 HD
BRANCH  14  16
ATOM     16  S1  SGN d 902      -0.819  51.584 -16.976  0.00  0.00     0.156 S 
BRANCH  16  17
ATOM     17  O1S SGN d 902       0.061  51.234 -18.106  0.00  0.00    -0.296 OA
ATOM     18  H   SGN d 902       0.908  51.698 -18.012  0.00  0.00     0.231 HD
ENDBRANCH  16  17
BRANCH  16  19
ATOM     19  O3S SGN d 902      -0.179  51.185 -15.709  0.00  0.00    -0.296 OA
ATOM     20  H   SGN d 902       0.669  51.647 -15.615  0.00  0.00     0.231 HD
ENDBRANCH  16  19
BRANCH  16  21
ATOM     21  O2S SGN d 902      -2.107  50.880 -17.116  0.00  0.00    -0.296 OA
ATOM     22  H   SGN d 902      -1.953  49.922 -17.118  0.00  0.00     0.231 HD
ENDBRANCH  16  21
ENDBRANCH  14  16
ENDBRANCH   9  14
BRANCH  10  23
ATOM     23  O3  SGN d 902      -3.275  55.141 -17.189  0.00  0.00    -0.391 OA
ATOM     24  H   SGN d 902      -3.983  54.577 -16.841  0.00  0.00     0.210 HD
ENDBRANCH  10  23
BRANCH  11  25
ATOM     25  O4  SGN d 902      -3.389  57.247 -15.314  0.00  0.00    -0.348 OA
BRANCH  25  26
ATOM     26  C1  UAP d 901      -4.651  57.553 -14.723  0.00  0.00     0.300 C 
ATOM     27  C2  UAP d 901      -4.941  59.039 -14.886  0.00  0.00     0.233 C 
ATOM     28  C3  UAP d 901      -5.363  59.422 -16.305  0.00  0.00     0.179 C 
ATOM     29  C4  UAP d 901      -5.779  58.290 -17.107  0.00  0.00     0.051 C 
ATOM     30  C5  UAP d 901      -5.934  57.050 -16.609  0.00  0.00     0.147 C 
ATOM     31  O5  UAP d 901      -5.700  56.790 -15.314  0.00  0.00    -0.311 OA
BRANCH  27  32
ATOM     32  O2  UAP d 901      -5.956  59.435 -13.967  0.00  0.00    -0.244 OA
BRANCH  32  33
ATOM     33  S   UAP d 901      -5.865  61.026 -13.203  0.00  0.00     0.252 S 
ATOM     34  O3S UAP d 901      -4.662  61.091 -12.352  0.00  0.00    -0.572 OA
ATOM     35  O1S UAP d 901      -7.066  61.245 -12.376  0.00  0.00    -0.572 OA
ATOM     36  O2S UAP d 901      -5.787  62.068 -14.243  0.00  0.00    -0.572 OA
ENDBRANCH  32  33
ENDBRANCH  27  32
BRANCH  28  37
ATOM     37  O3  UAP d 901      -4.321  60.116 -16.957  0.00  0.00    -0.389 OA
ATOM     38  H   UAP d 901      -3.551  59.533 -17.046  0.00  0.00     0.210 HD
ENDBRANCH  28  37
BRANCH  30  39
ATOM     39  C6  UAP d 901      -6.338  56.070 -17.418  0.00  0.00     0.233 C 
ATOM     40  O61 UAP d 901      -6.564  56.325 -18.623  0.00  0.00    -0.642 OA
ATOM     41  O62 UAP d 901      -6.492  54.920 -16.954  0.00  0.00    -0.642 OA
ENDBRANCH  30  39
ENDBRANCH  25  26
ENDBRANCH  11  25
BRANCH  12  42
ATOM     42  C6  SGN d 902      -2.394  56.664 -12.612  0.00  0.00     0.227 C 
BRANCH  42  43
ATOM     43  O6  SGN d 902      -3.269  55.682 -12.060  0.00  0.00    -0.254 OA
BRANCH  43  44
ATOM     44  S2  SGN d 902      -4.564  56.167 -10.964  0.00  0.00     0.251 S 
ATOM     45  O6S SGN d 902      -4.935  57.569 -11.235  0.00  0.00    -0.572 OA
ATOM     46  O4S SGN d 902      -5.737  55.297 -11.174  0.00  0.00    -0.572 OA
ATOM     47  O5S SGN d 902      -4.091  56.036  -9.572  0.00  0.00    -0.572 OA
ENDBRANCH  43  44
ENDBRANCH  42  43
ENDBRANCH  12  42
ENDBRANCH   7   8
ENDBRANCH   3   7
BRANCH   2  48
ATOM     48  O3  IDS d 903       1.684  53.157 -12.969  0.00  0.00    -0.390 OA
ATOM     49  H   IDS d 903       2.142  52.321 -12.792  0.00  0.00     0.210 HD
ENDBRANCH   2  48
BRANCH   4  50
ATOM     50  C6  IDS d 903       1.696  57.052 -15.923  0.00  0.00     0.206 C 
ATOM     51  O61 IDS d 903       0.932  57.881 -15.395  0.00  0.00    -0.646 OA
ATOM     52  O62 IDS d 903       1.849  56.955 -17.162  0.00  0.00    -0.646 OA
ENDBRANCH   4  50
BRANCH   6  53
ATOM     53  O2  IDS d 903       4.380  52.879 -13.486  0.00  0.00    -0.244 OA
BRANCH  53  54
ATOM     54  S   IDS d 903       5.100  52.636 -11.896  0.00  0.00     0.252 S 
ATOM     55  O1S IDS d 903       6.213  51.676 -12.005  0.00  0.00    -0.572 OA
ATOM     56  O2S IDS d 903       5.597  53.922 -11.375  0.00  0.00    -0.572 OA
ATOM     57  O3S IDS d 903       4.071  52.096 -10.983  0.00  0.00    -0.572 OA
ENDBRANCH  53  54
ENDBRANCH   6  53
BRANCH   5  58
ATOM     58  O4  SGN d 904       5.382  55.575 -14.645  0.00  0.00    -0.348 OA
BRANCH  58  59
ATOM     59  C4  SGN d 904       6.347  55.887 -15.646  0.00  0.00     0.186 C 
ATOM     60  C5  SGN d 904       7.704  55.366 -15.172  0.00  0.00     0.181 C 
ATOM     61  O5  SGN d 904       8.725  55.791 -16.081  0.00  0.00    -0.350 OA
ATOM     62  C1  SGN d 904       8.844  57.211 -16.212  0.00  0.00     0.278 C 
ATOM     63  C2  SGN d 904       7.524  57.761 -16.734  0.00  0.00     0.157 C 
ATOM     64  C3  SGN d 904       6.399  57.401 -15.783  0.00  0.00     0.173 C 
BRANCH  60  65
ATOM     65  C6  SGN d 904       7.695  53.850 -15.189  0.00  0.00     0.227 C 
BRANCH  65  66
ATOM     66  O6  SGN d 904       7.602  53.444 -16.553  0.00  0.00    -0.254 OA
BRANCH  66  67
ATOM     67  S2  SGN d 904       7.083  51.809 -16.941  0.00  0.00     0.251 S 
ATOM     68  O6S SGN d 904       5.919  51.459 -16.104  0.00  0.00    -0.572 OA
ATOM     69  O4S SGN d 904       6.715  51.736 -18.368  0.00  0.00    -0.572 OA
ATOM     70  O5S SGN d 904       8.186  50.875 -16.663  0.00  0.00    -0.572 OA
ENDBRANCH  66  67
ENDBRANCH  65  66
ENDBRANCH  60  65
BRANCH  62  71
ATOM     71  O1  SGN d 904       9.144  57.816 -14.951  0.00  0.00    -0.369 OA
ATOM     72  H   SGN d 904       8.431  57.623 -14.322  0.00  0.00     0.212 HD
ENDBRANCH  62  71
BRANCH  63  73
ATOM     73  N   SGN d 904       7.620  59.195 -16.840  0.00  0.00    -0.210 NA
ATOM     74  H   SGN d 904       6.670  59.563 -16.885  0.00  0.00     0.140 HD
BRANCH  73  75
ATOM     75  S1  SGN d 904       8.504  59.848 -18.214  0.00  0.00     0.156 S 
BRANCH  75  76
ATOM     76  O2S SGN d 904       8.014  61.209 -18.508  0.00  0.00    -0.296 OA
ATOM     77  H   SGN d 904       8.168  61.781 -17.740  0.00  0.00     0.231 HD
ENDBRANCH  75  76
BRANCH  75  78
ATOM     78  O1S SGN d 904       9.942  59.886 -17.895  0.00  0.00    -0.296 OA
ATOM     79  H   SGN d 904      10.089  60.466 -17.131  0.00  0.00     0.231 HD
ENDBRANCH  75  78
BRANCH  75  80
ATOM     80  O3S SGN d 904       8.275  58.968 -19.374  0.00  0.00    -0.296 OA
ATOM     81  H   SGN d 904       8.756  59.314 -20.142  0.00  0.00     0.231 HD
ENDBRANCH  75  80
ENDBRANCH  73  75
ENDBRANCH  63  73
BRANCH  64  82
ATOM     82  O3  SGN d 904       5.184  57.881 -16.313  0.00  0.00    -0.391 OA
ATOM     83  H   SGN d 904       5.227  58.846 -16.397  0.00  0.00     0.210 HD
ENDBRANCH  64  82
ENDBRANCH  58  59
ENDBRANCH   5  58
TORSDOF 33
