REMARK  0 active torsions:
REMARK  status: ('A' for Active; 'I' for Inactive)
REMARK       I    between atoms: C4_1  and  O4_83 
REMARK       I    between atoms: C6_2  and  C5_22 
REMARK       I    between atoms: C6_2  and  O6_14 
REMARK       I    between atoms: O4_3  and  C1_95 
REMARK       I    between atoms: O4_3  and  C4_54 
REMARK       I    between atoms: S1_4  and  N_89 
REMARK       I    between atoms: S1_4  and  O1S_71 
REMARK       I    between atoms: S1_4  and  O2S_90 
REMARK       I    between atoms: S1_4  and  O3S_60 
REMARK       I    between atoms: C5_8  and  C6_82 
REMARK       I    between atoms: C5_12  and  C6_85 
REMARK       I    between atoms: O2S_13  and  S1_32 
REMARK       I    between atoms: O6_14  and  S2_86 
REMARK       I    between atoms: O3_15  and  C3_49 
REMARK       I    between atoms: S_16  and  O2_57 
REMARK       I    between atoms: C2_17  and  N_89 
REMARK       I    between atoms: O4_20  and  C1_92 
REMARK       I    between atoms: O4_20  and  C4_50 
REMARK       I    between atoms: O3S_21  and  S1_32 
REMARK       I    between atoms: O1S_23  and  S1_32 
REMARK       I    between atoms: C5_24  and  C6_41 
REMARK       I    between atoms: O4_26  and  C4_70 
REMARK       I    between atoms: C1_27  and  O4_83 
REMARK       I    between atoms: C6_30  and  C5_81 
REMARK       I    between atoms: S1_32  and  N_56 
REMARK       I    between atoms: C2_33  and  O2_57 
REMARK       I    between atoms: C2_34  and  N_64 
REMARK       I    between atoms: C3_35  and  O3_58 
REMARK       I    between atoms: C3_38  and  O3_87 
REMARK       I    between atoms: S2_39  and  O6_40 
REMARK       I    between atoms: O6_40  and  C6_82 
REMARK       I    between atoms: O3_42  and  C3_63 
REMARK       I    between atoms: C4_43  and  O4_84 
REMARK       I    between atoms: C5_44  and  C6_72 
REMARK       I    between atoms: O3_45  and  C3_47 
REMARK       I    between atoms: C2_46  and  O2_80 
REMARK       I    between atoms: O4_48  and  C1_73 
REMARK       I    between atoms: O4_48  and  C4_67 
REMARK       I    between atoms: O2_51  and  C2_68 
REMARK       I    between atoms: O6_52  and  C6_85 
REMARK       I    between atoms: O6_52  and  S_76 
REMARK       I    between atoms: C2_53  and  N_56 
REMARK       I    between atoms: C1_59  and  O4_84 
REMARK       I    between atoms: N_64  and  C_65 
REMARK       I    between atoms: C3_69  and  O3_78 
ROOT
ATOM      1  C4  BDP d   2      18.404  10.804  46.968  0.00  0.00     0.195 C 
ATOM      2  C5  BDP d   2      17.559  10.500  45.751  0.00  0.00     0.257 C 
ATOM      3  C2  BDP d   2      16.253  11.041  48.150  0.00  0.00     0.204 C 
ATOM      4  O5  BDP d   2      16.325   9.946  46.100  0.00  0.00    -0.340 OA
ATOM      5  C3  BDP d   2      17.617  11.603  47.952  0.00  0.00     0.183 C 
ATOM      6  C6  BDP d   2      18.256   9.615  44.762  0.00  0.00     0.206 C 
ATOM      7  O6A BDP d   2      18.528  10.055  43.617  0.00  0.00    -0.646 OA
ATOM      8  O3  BDP d   2      18.254  11.604  49.179  0.00  0.00    -0.390 OA
ATOM      9  O2  BDP d   2      15.535  11.914  48.954  0.00  0.00    -0.388 OA
ATOM     10  O4  BDP d   2      19.510  11.541  46.545  0.00  0.00    -0.348 OA
ATOM     11  O6B BDP d   2      18.554   8.430  45.062  0.00  0.00    -0.646 OA
ATOM     12  C1  BDP d   2      15.563  10.840  46.835  0.00  0.00     0.292 C 
ATOM     13  H   BDP d   2      18.313  10.695  49.514  0.00  0.00     0.210 HD
ATOM     14  H   BDP d   2      15.477  12.780  48.520  0.00  0.00     0.210 HD
ATOM     15  C6  SGN d   3      13.246  13.171  46.522  0.00  0.00     0.227 C 
ATOM     16  S1  SGN d   3       9.546   8.599  43.315  0.00  0.00     0.156 S 
ATOM     17  O4S SGN d   3      15.364  14.931  43.974  0.00  0.00    -0.572 OA
ATOM     18  O6S SGN d   3      15.914  14.526  46.295  0.00  0.00    -0.572 OA
ATOM     19  O6  SGN d   3      13.930  13.491  45.331  0.00  0.00    -0.254 OA
ATOM     20  O3  SGN d   3      13.182   8.410  45.244  0.00  0.00    -0.391 OA
ATOM     21  C2  SGN d   3      11.295   9.830  44.801  0.00  0.00     0.157 C 
ATOM     22  O5  SGN d   3      11.448  12.132  45.367  0.00  0.00    -0.349 OA
ATOM     23  O4  SGN d   3      14.207  10.394  47.048  0.00  0.00    -0.348 OA
ATOM     24  C5  SGN d   3      12.440  11.890  46.347  0.00  0.00     0.181 C 
ATOM     25  C3  SGN d   3      12.428   9.488  45.764  0.00  0.00     0.173 C 
ATOM     26  C4  SGN d   3      13.324  10.698  45.978  0.00  0.00     0.186 C 
ATOM     27  O3S SGN d   3       8.848   7.318  43.392  0.00  0.00    -0.296 OA
ATOM     28  O1S SGN d   3       8.636   9.730  43.295  0.00  0.00    -0.296 OA
ATOM     29  C1  SGN d   3      10.520  11.071  45.255  0.00  0.00     0.282 C 
ATOM     30  O5S SGN d   3      14.003  15.866  45.757  0.00  0.00    -0.572 OA
ATOM     31  S2  SGN d   3      14.850  14.763  45.327  0.00  0.00     0.251 S 
ATOM     32  N   SGN d   3      10.419   8.682  44.650  0.00  0.00    -0.210 NA
ATOM     33  O2S SGN d   3      10.460   8.659  42.179  0.00  0.00    -0.296 OA
ATOM     34  H   SGN d   3      12.602   7.644  45.111  0.00  0.00     0.210 HD
ATOM     35  H   SGN d   3       8.253   7.320  44.158  0.00  0.00     0.231 HD
ATOM     36  H   SGN d   3       9.145  10.554  43.244  0.00  0.00     0.231 HD
ATOM     37  H   SGN d   3      11.001   7.845  44.688  0.00  0.00     0.140 HD
ATOM     38  H   SGN d   3      10.902   9.523  42.164  0.00  0.00     0.231 HD
ATOM     39  O4  SGN d   5       6.196  12.844  48.665  0.00  0.00    -0.348 OA
ATOM     40  C5  SGN d   5       4.271  13.087  50.144  0.00  0.00     0.181 C 
ATOM     41  O2S SGN d   5       5.344  16.559  54.394  0.00  0.00    -0.296 OA
ATOM     42  O3S SGN d   5       7.478  15.389  54.397  0.00  0.00    -0.296 OA
ATOM     43  O1S SGN d   5       7.335  17.703  53.686  0.00  0.00    -0.296 OA
ATOM     44  O4S SGN d   5       1.415  10.249  51.020  0.00  0.00    -0.572 OA
ATOM     45  S1  SGN d   5       6.654  16.415  53.766  0.00  0.00     0.156 S 
ATOM     46  C3  SGN d   5       6.458  14.169  50.620  0.00  0.00     0.173 C 
ATOM     47  S2  SGN d   5       2.656   9.627  50.562  0.00  0.00     0.251 S 
ATOM     48  O6  SGN d   5       3.730  10.761  50.470  0.00  0.00    -0.254 OA
ATOM     49  C2  SGN d   5       5.891  14.580  51.981  0.00  0.00     0.157 C 
ATOM     50  C4  SGN d   5       5.787  12.936  50.024  0.00  0.00     0.186 C 
ATOM     51  N   SGN d   5       6.402  15.907  52.271  0.00  0.00    -0.210 NA
ATOM     52  C1  SGN d   5       4.362  14.580  51.976  0.00  0.00     0.282 C 
ATOM     53  O6S SGN d   5       3.155   8.641  51.511  0.00  0.00    -0.572 OA
ATOM     54  O5  SGN d   5       3.893  13.336  51.495  0.00  0.00    -0.349 OA
ATOM     55  C6  SGN d   5       3.523  11.866  49.618  0.00  0.00     0.227 C 
ATOM     56  O3  SGN d   5       7.843  13.948  50.740  0.00  0.00    -0.391 OA
ATOM     57  O5S SGN d   5       2.507   9.033  49.239  0.00  0.00    -0.572 OA
ATOM     58  H   SGN d   5       5.455  16.867  55.307  0.00  0.00     0.231 HD
ATOM     59  H   SGN d   5       7.665  15.644  55.314  0.00  0.00     0.231 HD
ATOM     60  H   SGN d   5       7.502  18.037  54.581  0.00  0.00     0.231 HD
ATOM     61  H   SGN d   5       7.299  15.977  51.791  0.00  0.00     0.140 HD
ATOM     62  H   SGN d   5       8.001  13.215  51.355  0.00  0.00     0.210 HD
ATOM     63  O8  NGY d   1      23.849   7.051  47.090  0.00  0.00    -0.572 OA
ATOM     64  C5  NGY d   1      22.069  10.487  45.857  0.00  0.00     0.181 C 
ATOM     65  CH3 NGY d   1      19.936  16.039  48.673  0.00  0.00     0.117 C 
ATOM     66  O5  NGY d   1      21.521  10.418  47.121  0.00  0.00    -0.349 OA
ATOM     67  O4  NGY d   1      23.418  11.840  44.484  0.00  0.00    -0.390 OA
ATOM     68  C1  NGY d   1      20.653  11.449  47.427  0.00  0.00     0.286 C 
ATOM     69  C2  NGY d   1      21.402  12.739  47.368  0.00  0.00     0.170 C 
ATOM     70  C3  NGY d   1      21.980  12.886  46.004  0.00  0.00     0.177 C 
ATOM     71  O9  NGY d   1      25.939   8.208  47.330  0.00  0.00    -0.572 OA
ATOM     72  O6  NGY d   1      24.059   9.247  46.301  0.00  0.00    -0.254 OA
ATOM     73  O7  NGY d   1      25.246   7.477  45.201  0.00  0.00    -0.572 OA
ATOM     74  O3  NGY d   1      22.675  14.072  45.904  0.00  0.00    -0.391 OA
ATOM     75  O   NGY d   1      22.007  14.938  48.946  0.00  0.00    -0.274 OA
ATOM     76  N   NGY d   1      20.501  13.824  47.610  0.00  0.00    -0.349 N 
ATOM     77  C   NGY d   1      20.895  14.920  48.437  0.00  0.00     0.214 C 
ATOM     78  C4  NGY d   1      22.886  11.733  45.749  0.00  0.00     0.180 C 
ATOM     79  S   NGY d   1      24.799   7.977  46.475  0.00  0.00     0.251 S 
ATOM     80  C6  NGY d   1      22.888   9.268  45.567  0.00  0.00     0.227 C 
ATOM     81  H   NGY d   1      24.009  11.089  44.317  0.00  0.00     0.210 HD
ATOM     82  H   NGY d   1      23.393  14.082  46.556  0.00  0.00     0.210 HD
ATOM     83  H   NGY d   1      19.604  13.815  47.204  0.00  0.00     0.163 HD
ATOM     84  O1S IDS d   4       4.802  10.098  44.746  0.00  0.00    -0.572 OA
ATOM     85  O62 IDS d   4      10.254  10.474  49.481  0.00  0.00    -0.646 OA
ATOM     86  S   IDS d   4       5.207   9.494  45.990  0.00  0.00     0.252 S 
ATOM     87  O2S IDS d   4       5.406   8.047  45.835  0.00  0.00    -0.572 OA
ATOM     88  C6  IDS d   4      10.080  11.650  49.063  0.00  0.00     0.206 C 
ATOM     89  C2  IDS d   4       6.573  11.378  46.785  0.00  0.00     0.231 C 
ATOM     90  O3  IDS d   4       7.425  13.400  45.985  0.00  0.00    -0.390 OA
ATOM     91  C3  IDS d   4       7.746  12.063  46.118  0.00  0.00     0.185 C 
ATOM     92  O4  IDS d   4       9.788  10.835  46.485  0.00  0.00    -0.348 OA
ATOM     93  O2  IDS d   4       6.506  10.045  46.419  0.00  0.00    -0.244 OA
ATOM     94  C4  IDS d   4       9.050  11.961  46.859  0.00  0.00     0.195 C 
ATOM     95  C5  IDS d   4       8.816  12.004  48.345  0.00  0.00     0.257 C 
ATOM     96  O5  IDS d   4       7.840  11.117  48.737  0.00  0.00    -0.340 OA
ATOM     97  O3S IDS d   4       4.193   9.742  46.986  0.00  0.00    -0.572 OA
ATOM     98  C1  IDS d   4       6.605  11.509  48.277  0.00  0.00     0.294 C 
ATOM     99  O61 IDS d   4      10.974  12.517  49.242  0.00  0.00    -0.646 OA
ATOM    100  H   IDS d   4       6.585  13.485  45.508  0.00  0.00     0.210 HD
ATOM    101  C1  BDP d   6       0.580  17.988  51.080  0.00  0.00     0.203 C 
ATOM    102  C5  BDP d   6       1.956  16.422  50.082  0.00  0.00     0.253 C 
ATOM    103  O6A BDP d   6       2.831  15.298  48.164  0.00  0.00    -0.646 OA
ATOM    104  O6B BDP d   6       1.040  14.451  49.079  0.00  0.00    -0.646 OA
ATOM    105  C6  BDP d   6       1.943  15.330  49.055  0.00  0.00     0.205 C 
ATOM    106  O3  BDP d   6       2.680  16.519  53.671  0.00  0.00    -0.390 OA
ATOM    107  C4  BDP d   6       2.552  15.972  51.391  0.00  0.00     0.195 C 
ATOM    108  O2  BDP d   6       1.044  18.761  53.227  0.00  0.00    -0.391 OA
ATOM    109  C3  BDP d   6       2.416  17.044  52.421  0.00  0.00     0.181 C 
ATOM    110  C2  BDP d   6       1.043  17.621  52.447  0.00  0.00     0.173 C 
ATOM    111  O5  BDP d   6       0.656  16.870  50.276  0.00  0.00    -0.370 OA
ATOM    112  O4  BDP d   6       3.897  15.702  51.191  0.00  0.00    -0.348 OA
ATOM    113  H   BDP d   6       3.571  16.136  53.679  0.00  0.00     0.210 HD
ATOM    114  H   BDP d   6       0.151  19.140  53.247  0.00  0.00     0.210 HD
ENDROOT
TORSDOF 44
