REMARK WARNING: 32 MAX_TORS EXCEEDED!!!
REMARK  49 active torsions:
REMARK  status: ('A' for Active; 'I' for Inactive)
REMARK    1 I    between atoms: C2_1  and  O2_40 
REMARK    2 I    between atoms: C2_3  and  O2_74 
REMARK    3 I    between atoms: O3_5  and  C3_76 
REMARK    4 I    between atoms: O3S_7  and  S1_24 
REMARK    5 I    between atoms: S2_8  and  O6_78 
REMARK    6 I    between atoms: C4_13  and  O4_81 
REMARK    7 I    between atoms: C1_14  and  O4_92 
REMARK    8 I    between atoms: O1S_15  and  S1_52 
REMARK    9 A    between atoms: O4_16  and  C1_51 
REMARK    9  A    between atoms: O4_16  and  C1_51 
REMARK   10 I    between atoms: O4_16  and  C4_80 
REMARK   11 I    between atoms: N_18  and  C2_46 
REMARK   12 I    between atoms: N_18  and  S1_64 
REMARK   13 I    between atoms: C5_19  and  C6_96 
REMARK   14 I    between atoms: O6_20  and  C6_104 
REMARK   15 I    between atoms: O6_20  and  S2_77 
REMARK   16 I    between atoms: C5_22  and  C6_33 
REMARK   17 I    between atoms: S1_24  and  N_56 
REMARK   18 I    between atoms: S1_24  and  O1S_101 
REMARK   19 I    between atoms: S1_24  and  O2S_38 
REMARK   20 I    between atoms: C5_26  and  C6_104 
REMARK   21 I    between atoms: O2S_27  and  S1_64 
REMARK   22 I    between atoms: S_28  and  O2_74 
REMARK   23 I    between atoms: O3_29  and  C3_93 
REMARK   24 I    between atoms: O2_30  and  C2_58 
REMARK   25 I    between atoms: O2_30  and  S_32 
REMARK   26 I    between atoms: C1_31  and  O4_44 
REMARK   27 I    between atoms: C1_34  and  O4_83 
REMARK   28 I    between atoms: O3_35  and  C3_97 
REMARK   29 I    between atoms: C2_36  and  N_56 
REMARK   30 I    between atoms: C6_37  and  C5_70 
REMARK   31 I    between atoms: O2_40  and  S_98 
REMARK   32 I    between atoms: O4_44  and  C4_95 
REMARK   33 I    between atoms: C4_48  and  O4_83 
REMARK   34 I    between atoms: S2_49  and  O6_57 
REMARK   35 I    between atoms: O3_50  and  C3_103 
REMARK   36 I    between atoms: S1_52  and  N_79 
REMARK   37 I    between atoms: S1_52  and  O2S_68 
REMARK   38 I    between atoms: S1_52  and  O3S_60 
REMARK   39 I    between atoms: C1_53  and  O4_81 
REMARK   40 I    between atoms: O6_57  and  C6_99 
REMARK   41 I    between atoms: S1_64  and  O1S_86 
REMARK   42 I    between atoms: S1_64  and  O3S_84 
REMARK   43 I    between atoms: C6_65  and  C5_87 
REMARK   44 I    between atoms: C6_65  and  O6_78 
REMARK   45 I    between atoms: C5_67  and  C6_99 
REMARK   46 I    between atoms: C3_75  and  O3_88 
REMARK   47 I    between atoms: N_79  and  C2_90 
REMARK   48 I    between atoms: C3_89  and  O3_94 
REMARK   49 I    between atoms: C4_91  and  O4_92 
ROOT
ATOM      1  C1  SGN d 304      19.878  15.653  11.246  0.00  0.00     0.282 C 
ATOM      2  C5  SGN d 304      18.380  14.166  10.042  0.00  0.00     0.181 C 
ATOM      3  O5  SGN d 304      18.544  15.421  10.674  0.00  0.00    -0.349 OA
ATOM      4  C2  SGN d 304      20.106  14.542  12.272  0.00  0.00     0.157 C 
ATOM      5  C4  SGN d 304      18.699  13.020  11.030  0.00  0.00     0.186 C 
ATOM      6  C3  SGN d 304      20.139  13.170  11.542  0.00  0.00     0.173 C 
ENDROOT
BRANCH   5   7
ATOM      7  O4  SGN d 304      18.550  11.725  10.377  0.00  0.00    -0.348 OA
BRANCH   7   8
ATOM      8  C1  IDS d 303      17.248  11.137  10.404  0.00  0.00     0.294 C 
ATOM      9  C2  IDS d 303      17.209   9.923   9.463  0.00  0.00     0.231 C 
ATOM     10  C3  IDS d 303      17.975   8.695  10.210  0.00  0.00     0.185 C 
ATOM     11  C4  IDS d 303      17.490   8.460  11.687  0.00  0.00     0.195 C 
ATOM     12  C5  IDS d 303      17.543   9.777  12.474  0.00  0.00     0.257 C 
ATOM     13  O5  IDS d 303      16.751  10.814  11.773  0.00  0.00    -0.340 OA
BRANCH   9  14
ATOM     14  O2  IDS d 303      15.750   9.793   9.144  0.00  0.00    -0.244 OA
BRANCH  14  15
ATOM     15  S   IDS d 303      15.436  10.321   7.637  0.00  0.00     0.252 S 
ATOM     16  O1S IDS d 303      14.027  10.247   7.471  0.00  0.00    -0.572 OA
ATOM     17  O2S IDS d 303      16.167  11.562   7.479  0.00  0.00    -0.572 OA
ATOM     18  O3S IDS d 303      16.025   9.352   6.603  0.00  0.00    -0.572 OA
ENDBRANCH  14  15
ENDBRANCH   9  14
BRANCH  10  19
ATOM     19  O3  IDS d 303      19.353   9.089  10.334  0.00  0.00    -0.390 OA
ATOM     20  H   IDS d 303      19.723   9.253   9.452  0.00  0.00     0.210 HD
ENDBRANCH  10  19
BRANCH  11  21
ATOM     21  O4  IDS d 303      16.161   7.951  11.813  0.00  0.00    -0.348 OA
BRANCH  21  22
ATOM     22  C1  SGN d 302      16.129   6.516  11.883  0.00  0.00     0.282 C 
ATOM     23  O5  SGN d 302      16.512   5.908  13.187  0.00  0.00    -0.349 OA
ATOM     24  C5  SGN d 302      15.494   5.996  14.260  0.00  0.00     0.181 C 
ATOM     25  C4  SGN d 302      14.164   5.398  13.794  0.00  0.00     0.186 C 
ATOM     26  C3  SGN d 302      13.686   6.226  12.544  0.00  0.00     0.173 C 
ATOM     27  C2  SGN d 302      14.751   6.009  11.444  0.00  0.00     0.157 C 
BRANCH  24  28
ATOM     28  C6  SGN d 302      15.980   5.225  15.502  0.00  0.00     0.227 C 
BRANCH  28  29
ATOM     29  O6  SGN d 302      17.195   5.693  16.027  0.00  0.00    -0.254 OA
BRANCH  29  30
ATOM     30  S2  SGN d 302      17.532   4.767  17.249  0.00  0.00     0.251 S 
ATOM     31  O5S SGN d 302      16.389   4.905  18.169  0.00  0.00    -0.572 OA
ATOM     32  O4S SGN d 302      18.875   5.105  17.628  0.00  0.00    -0.572 OA
ATOM     33  O6S SGN d 302      17.586   3.297  16.801  0.00  0.00    -0.572 OA
ENDBRANCH  29  30
ENDBRANCH  28  29
ENDBRANCH  24  28
BRANCH  25  34
ATOM     34  O4  SGN d 302      13.227   5.429  14.925  0.00  0.00    -0.348 OA
BRANCH  34  35
ATOM     35  C1  UAP d 301      12.655   6.584  15.510  0.00  0.00     0.300 C 
ATOM     36  C2  UAP d 301      12.618   6.330  17.085  0.00  0.00     0.233 C 
ATOM     37  C3  UAP d 301      12.029   7.642  17.753  0.00  0.00     0.179 C 
ATOM     38  C4  UAP d 301      10.783   8.114  16.952  0.00  0.00     0.051 C 
ATOM     39  C5  UAP d 301      10.534   7.646  15.696  0.00  0.00     0.147 C 
ATOM     40  O5  UAP d 301      11.308   6.761  15.006  0.00  0.00    -0.311 OA
BRANCH  36  41
ATOM     41  O2  UAP d 301      11.742   5.150  17.455  0.00  0.00    -0.244 OA
BRANCH  41  42
ATOM     42  S   UAP d 301      12.614   3.858  17.923  0.00  0.00     0.252 S 
ATOM     43  O1S UAP d 301      11.685   2.791  18.292  0.00  0.00    -0.572 OA
ATOM     44  O3S UAP d 301      13.427   4.217  19.206  0.00  0.00    -0.572 OA
ATOM     45  O2S UAP d 301      13.585   3.647  16.828  0.00  0.00    -0.572 OA
ENDBRANCH  41  42
ENDBRANCH  36  41
BRANCH  37  46
ATOM     46  O3  UAP d 301      13.041   8.684  17.756  0.00  0.00    -0.389 OA
ATOM     47  H   UAP d 301      13.815   8.382  18.257  0.00  0.00     0.210 HD
ENDBRANCH  37  46
BRANCH  39  48
ATOM     48  C6  UAP d 301       9.304   8.105  14.938  0.00  0.00     0.233 C 
ATOM     49  O62 UAP d 301       9.074   7.615  13.675  0.00  0.00    -0.642 OA
ATOM     50  O61 UAP d 301       8.497   8.904  15.430  0.00  0.00    -0.642 OA
ENDBRANCH  39  48
ENDBRANCH  34  35
ENDBRANCH  25  34
BRANCH  26  51
ATOM     51  O3  SGN d 302      12.440   5.736  12.062  0.00  0.00    -0.391 OA
ATOM     52  H   SGN d 302      12.532   4.801  11.821  0.00  0.00     0.210 HD
ENDBRANCH  26  51
BRANCH  27  53
ATOM     53  N   SGN d 302      14.460   6.672  10.175  0.00  0.00    -0.210 NA
ATOM     54  H   SGN d 302      13.459   6.567  10.011  0.00  0.00     0.140 HD
BRANCH  53  55
ATOM     55  S1  SGN d 302      15.243   6.173   8.755  0.00  0.00     0.156 S 
BRANCH  55  56
ATOM     56  O3S SGN d 302      14.894   4.735   8.406  0.00  0.00    -0.296 OA
ATOM     57  H   SGN d 302      13.948   4.672   8.202  0.00  0.00     0.231 HD
ENDBRANCH  55  56
BRANCH  55  58
ATOM     58  O1S SGN d 302      14.710   7.050   7.748  0.00  0.00    -0.296 OA
ATOM     59  H   SGN d 302      13.745   6.954   7.713  0.00  0.00     0.231 HD
ENDBRANCH  55  58
BRANCH  55  60
ATOM     60  O2S SGN d 302      16.654   6.104   9.028  0.00  0.00    -0.296 OA
ATOM     61  H   SGN d 302      16.815   5.460   9.735  0.00  0.00     0.231 HD
ENDBRANCH  55  60
ENDBRANCH  53  55
ENDBRANCH  27  53
ENDBRANCH  21  22
ENDBRANCH  11  21
BRANCH  12  62
ATOM     62  C6  IDS d 303      16.991   9.485  13.911  0.00  0.00     0.206 C 
ATOM     63  O61 IDS d 303      16.003  10.070  14.360  0.00  0.00    -0.646 OA
ATOM     64  O62 IDS d 303      17.585   8.553  14.662  0.00  0.00    -0.646 OA
ENDBRANCH  12  62
ENDBRANCH   7   8
ENDBRANCH   5   7
BRANCH   2  65
ATOM     65  C6  SGN d 304      16.875  14.089   9.623  0.00  0.00     0.227 C 
BRANCH  65  66
ATOM     66  O6  SGN d 304      16.460  15.118   8.736  0.00  0.00    -0.254 OA
BRANCH  66  67
ATOM     67  S2  SGN d 304      14.920  14.971   8.480  0.00  0.00     0.251 S 
ATOM     68  O6S SGN d 304      14.137  15.606   9.633  0.00  0.00    -0.572 OA
ATOM     69  O4S SGN d 304      14.652  15.749   7.302  0.00  0.00    -0.572 OA
ATOM     70  O5S SGN d 304      14.635  13.558   8.532  0.00  0.00    -0.572 OA
ENDBRANCH  66  67
ENDBRANCH  65  66
ENDBRANCH   2  65
BRANCH   6  71
ATOM     71  O3  SGN d 304      20.401  12.124  12.459  0.00  0.00    -0.391 OA
ATOM     72  H   SGN d 304      21.308  12.205  12.792  0.00  0.00     0.210 HD
ENDBRANCH   6  71
BRANCH   4  73
ATOM     73  N   SGN d 304      21.329  14.862  12.921  0.00  0.00    -0.210 NA
ATOM     74  H   SGN d 304      21.864  14.010  13.088  0.00  0.00     0.140 HD
BRANCH  73  75
ATOM     75  S1  SGN d 304      20.974  15.589  14.357  0.00  0.00     0.156 S 
BRANCH  75  76
ATOM     76  O1S SGN d 304      22.229  15.881  14.987  0.00  0.00    -0.296 OA
ATOM     77  H   SGN d 304      22.706  16.545  14.465  0.00  0.00     0.231 HD
ENDBRANCH  75  76
BRANCH  75  78
ATOM     78  O2S SGN d 304      19.987  16.643  14.028  0.00  0.00    -0.296 OA
ATOM     79  H   SGN d 304      20.413  17.329  13.491  0.00  0.00     0.231 HD
ENDBRANCH  75  78
BRANCH  75  80
ATOM     80  O3S SGN d 304      20.242  14.537  15.205  0.00  0.00    -0.296 OA
ATOM     81  H   SGN d 304      20.858  13.826  15.442  0.00  0.00     0.231 HD
ENDBRANCH  75  80
ENDBRANCH  73  75
ENDBRANCH   4  73
BRANCH   1  82
ATOM     82  O4  IDS d 305      21.028  15.545  10.291  0.00  0.00    -0.348 OA
BRANCH  82  83
ATOM     83  C4  IDS d 305      21.442  16.750   9.590  0.00  0.00     0.195 C 
ATOM     84  C5  IDS d 305      22.227  16.305   8.304  0.00  0.00     0.257 C 
ATOM     85  O5  IDS d 305      23.494  15.649   8.675  0.00  0.00    -0.340 OA
ATOM     86  C1  IDS d 305      24.411  16.586   9.356  0.00  0.00     0.294 C 
ATOM     87  C2  IDS d 305      23.811  17.093  10.714  0.00  0.00     0.231 C 
ATOM     88  C3  IDS d 305      22.378  17.726  10.457  0.00  0.00     0.185 C 
BRANCH  84  89
ATOM     89  C6  IDS d 305      21.383  15.345   7.492  0.00  0.00     0.206 C 
ATOM     90  O61 IDS d 305      21.786  14.203   7.241  0.00  0.00    -0.646 OA
ATOM     91  O62 IDS d 305      20.196  15.768   7.032  0.00  0.00    -0.646 OA
ENDBRANCH  84  89
BRANCH  86  92
ATOM     92  O4  SGN d 306      24.842  17.700   8.470  0.00  0.00    -0.348 OA
BRANCH  92  93
ATOM     93  C4  SGN d 306      24.297  17.872   7.085  0.00  0.00     0.186 C 
ATOM     94  C5  SGN d 306      25.242  17.319   5.966  0.00  0.00     0.178 C 
ATOM     95  O5  SGN d 306      24.676  17.518   4.652  0.00  0.00    -0.379 OA
ATOM     96  C1  SGN d 306      24.446  18.911   4.399  0.00  0.00     0.191 C 
ATOM     97  C2  SGN d 306      23.529  19.497   5.448  0.00  0.00     0.126 C 
ATOM     98  C3  SGN d 306      24.113  19.371   6.813  0.00  0.00     0.170 C 
BRANCH  94  99
ATOM     99  C6  SGN d 306      25.483  15.816   6.047  0.00  0.00     0.227 C 
BRANCH  99 100
ATOM    100  O6  SGN d 306      26.318  15.571   4.875  0.00  0.00    -0.254 OA
BRANCH 100 101
ATOM    101  S2  SGN d 306      26.664  14.089   4.730  0.00  0.00     0.251 S 
ATOM    102  O6S SGN d 306      25.449  13.224   5.125  0.00  0.00    -0.572 OA
ATOM    103  O4S SGN d 306      26.904  13.904   3.320  0.00  0.00    -0.572 OA
ATOM    104  O5S SGN d 306      27.704  13.877   5.737  0.00  0.00    -0.572 OA
ENDBRANCH 100 101
ENDBRANCH  99 100
ENDBRANCH  94  99
BRANCH  97 105
ATOM    105  N   SGN d 306      23.306  20.864   5.172  0.00  0.00    -0.212 NA
ATOM    106  H   SGN d 306      23.865  21.131   4.362  0.00  0.00     0.140 HD
BRANCH 105 107
ATOM    107  S1  SGN d 306      21.734  21.180   4.855  0.00  0.00     0.156 S 
BRANCH 107 108
ATOM    108  O2S SGN d 306      21.400  20.178   3.811  0.00  0.00    -0.296 OA
ATOM    109  H   SGN d 306      21.886  20.385   2.997  0.00  0.00     0.231 HD
ENDBRANCH 107 108
BRANCH 107 110
ATOM    110  O1S SGN d 306      21.666  22.630   4.617  0.00  0.00    -0.296 OA
ATOM    111  H   SGN d 306      22.181  22.852   3.825  0.00  0.00     0.231 HD
ENDBRANCH 107 110
BRANCH 107 112
ATOM    112  O3S SGN d 306      20.916  20.778   6.124  0.00  0.00    -0.296 OA
ATOM    113  H   SGN d 306      20.977  19.819   6.258  0.00  0.00     0.231 HD
ENDBRANCH 107 112
ENDBRANCH 105 107
ENDBRANCH  97 105
BRANCH  98 114
ATOM    114  O3  SGN d 306      23.211  19.979   7.747  0.00  0.00    -0.391 OA
ATOM    115  H   SGN d 306      22.343  19.550   7.684  0.00  0.00     0.210 HD
ENDBRANCH  98 114
ENDBRANCH  92  93
ENDBRANCH  86  92
BRANCH  87 116
ATOM    116  O2  IDS d 305      23.751  15.934  11.597  0.00  0.00    -0.244 OA
BRANCH 116 117
ATOM    117  S   IDS d 305      24.969  15.977  12.641  0.00  0.00     0.252 S 
ATOM    118  O2S IDS d 305      26.191  16.100  11.859  0.00  0.00    -0.572 OA
ATOM    119  O1S IDS d 305      24.817  14.831  13.501  0.00  0.00    -0.572 OA
ATOM    120  O3S IDS d 305      24.814  17.259  13.488  0.00  0.00    -0.572 OA
ENDBRANCH 116 117
ENDBRANCH  87 116
BRANCH  88 121
ATOM    121  O3  IDS d 305      22.604  18.883   9.676  0.00  0.00    -0.390 OA
ATOM    122  H   IDS d 305      21.757  19.315   9.486  0.00  0.00     0.210 HD
ENDBRANCH  88 121
ENDBRANCH  82  83
ENDBRANCH   1  82
TORSDOF 49
