REMARK  10 active torsions:
REMARK  status: ('A' for Active; 'I' for Inactive)
REMARK    1 I    between atoms: O2_1  and  C2_13 
REMARK    2 I    between atoms: C6_2  and  C5_7 
REMARK    3 I    between atoms: C6_4  and  C5_18 
REMARK    4 I    between atoms: C6_4  and  O6_5 
REMARK    5 A    between atoms: O3_6  and  C1_24 
REMARK    5  A    between atoms: O3_6  and  C1_24 
REMARK    6 I    between atoms: O3_6  and  C3_11 
REMARK    7 I    between atoms: C2_8  and  N2_16 
REMARK    8 I    between atoms: O4_10  and  C4_25 
REMARK    9 I    between atoms: C3_12  and  O3_26 
REMARK   10 I    between atoms: C1_14  and  O1_23 
REMARK      I    between atoms: C7_15  and  N2_16 
ROOT
ATOM      1  C2  NAG d 904      21.021 -13.457  33.147  0.00  0.00     0.171 C 
ATOM      2  C3  NAG d 904      19.688 -13.437  32.298  0.00  0.00     0.183 C 
ATOM      3  C1  NAG d 904      21.839 -12.232  32.796  0.00  0.00     0.282 C 
ATOM      4  C5  NAG d 904      19.693 -10.933  32.277  0.00  0.00     0.179 C 
ATOM      5  O5  NAG d 904      21.003 -10.984  33.052  0.00  0.00    -0.349 OA
ATOM      6  C4  NAG d 904      18.857 -12.154  32.626  0.00  0.00     0.180 C 
ENDROOT
BRANCH   2   7
ATOM      7  O3  NAG d 904      18.921 -14.603  32.663  0.00  0.00    -0.348 OA
BRANCH   7   8
ATOM      8  C1  GCD d 903      18.348 -15.623  31.781  0.00  0.00     0.292 C 
ATOM      9  C2  GCD d 903      18.335 -17.010  32.503  0.00  0.00     0.202 C 
ATOM     10  C3  GCD d 903      17.242 -17.846  31.719  0.00  0.00     0.154 C 
ATOM     11  C4  GCD d 903      15.868 -17.287  31.472  0.00  0.00     0.077 C 
ATOM     12  C5  GCD d 903      15.824 -15.956  31.461  0.00  0.00     0.228 C 
ATOM     13  O5  GCD d 903      16.979 -15.008  31.674  0.00  0.00    -0.343 OA
BRANCH   9  14
ATOM     14  O2  GCD d 903      19.659 -17.661  32.645  0.00  0.00    -0.388 OA
ATOM     15  H   GCD d 903      19.554 -18.510  33.102  0.00  0.00     0.210 HD
ENDBRANCH   9  14
BRANCH  10  16
ATOM     16  O3  GCD d 903      17.214 -19.118  32.395  0.00  0.00    -0.393 OA
ATOM     17  H   GCD d 903      16.921 -18.991  33.311  0.00  0.00     0.210 HD
ENDBRANCH  10  16
BRANCH  12  18
ATOM     18  C6  GCD d 903      14.498 -15.173  31.208  0.00  0.00     0.203 C 
ATOM     19  O6A GCD d 903      13.357 -15.871  31.046  0.00  0.00    -0.646 OA
ATOM     20  O6B GCD d 903      14.741 -13.972  31.306  0.00  0.00    -0.646 OA
ENDBRANCH  12  18
ENDBRANCH   7   8
ENDBRANCH   2   7
BRANCH   1  21
ATOM     21  N2  NAG d 904      21.884 -14.719  32.901  0.00  0.00    -0.349 N 
ATOM     22  C7  NAG d 904      22.594 -15.485  33.955  0.00  0.00     0.214 C 
ATOM     23  C8  NAG d 904      22.486 -14.982  35.408  0.00  0.00     0.117 C 
ATOM     24  O7  NAG d 904      23.266 -16.509  33.696  0.00  0.00    -0.274 OA
ATOM     25  H   NAG d 904      21.968 -15.038  31.973  0.00  0.00     0.163 HD
ENDBRANCH   1  21
BRANCH   6  26
ATOM     26  O4  NAG d 904      17.601 -12.110  31.864  0.00  0.00    -0.390 OA
ATOM     27  H   NAG d 904      17.063 -12.887  32.083  0.00  0.00     0.210 HD
ENDBRANCH   6  26
BRANCH   3  28
ATOM     28  O1  NAG d 904      23.086 -12.260  33.570  0.00  0.00    -0.369 OA
ATOM     29  H   NAG d 904      22.878 -12.270  34.517  0.00  0.00     0.212 HD
ENDBRANCH   3  28
BRANCH   4  30
ATOM     30  C6  NAG d 904      18.920  -9.646  32.630  0.00  0.00     0.198 C 
BRANCH  30  31
ATOM     31  O6  NAG d 904      18.488  -9.625  34.053  0.00  0.00    -0.398 OA
ATOM     32  H   NAG d 904      17.892 -10.371  34.221  0.00  0.00     0.209 HD
ENDBRANCH  30  31
ENDBRANCH   4  30
TORSDOF 10
