REMARK WARNING: 32 MAX_TORS EXCEEDED!!!
REMARK  67 active torsions:
REMARK  status: ('A' for Active; 'I' for Inactive)
REMARK    1 I    between atoms: C6_1  and  C5_42 
REMARK    2 I    between atoms: O1S_2  and  S1_79 
REMARK    3 I    between atoms: C1_4  and  O4_126 
REMARK    4 I    between atoms: C3_5  and  O3_53 
REMARK    5 I    between atoms: N_6  and  C2_10 
REMARK    6 I    between atoms: N_6  and  S1_122 
REMARK    7 I    between atoms: O3_13  and  C3_98 
REMARK    8 I    between atoms: C3_15  and  O3_24 
REMARK    9 I    between atoms: C4_16  and  O1_112 
REMARK   10 I    between atoms: O1S_17  and  S1_122 
REMARK   11 I    between atoms: C4_18  and  O1_96 
REMARK   12 I    between atoms: O2_19  and  C2_57 
REMARK   13 I    between atoms: O2_19  and  S_54 
REMARK   14 I    between atoms: O2_21  and  C2_22 
REMARK   15 I    between atoms: O2_21  and  S_59 
REMARK   16 I    between atoms: O6_23  and  C6_100 
REMARK   17 I    between atoms: O6_23  and  S2_108 
REMARK   18 I    between atoms: C6_25  and  C5_85 
REMARK   19 I    between atoms: C6_25  and  O6_132 
REMARK   20 I    between atoms: O2S_27  and  S1_77 
REMARK   21 I    between atoms: C6_28  and  C5_58 
REMARK   22 I    between atoms: C5_29  and  C6_125 
REMARK   23 I    between atoms: C1_30  and  O1_96 
REMARK   24 I    between atoms: C3_31  and  O3_74 
REMARK   25 I    between atoms: C4_32  and  O4_120 
REMARK   26 I    between atoms: O1S_33  and  S1_91 
REMARK   27 I    between atoms: O6_35  and  C6_125 
REMARK   28 I    between atoms: O6_35  and  S2_73 
REMARK   29 I    between atoms: C5_40  and  C6_95 
REMARK   30 I    between atoms: O3S_41  and  S1_91 
REMARK   31 I    between atoms: O3S_43  and  S1_122 
REMARK   32 I    between atoms: O2S_44  and  S1_122 
REMARK   33 I    between atoms: O3_46  and  C3_111 
REMARK   34 I    between atoms: C2_47  and  O2_76 
REMARK   35 I    between atoms: S2_49  and  O6_121 
REMARK   36 I    between atoms: O3_50  and  C3_71 
REMARK   37 I    between atoms: C4_51  and  O4_126 
REMARK   38 A    between atoms: O4_55  and  C1_68 
REMARK   38  A    between atoms: O4_55  and  C1_68 
REMARK   39 I    between atoms: O4_55  and  C4_119 
REMARK   40 I    between atoms: S_56  and  O2_76 
REMARK   41 I    between atoms: C2_61  and  N_113 
REMARK   42 I    between atoms: C1_62  and  O1_137 
REMARK   43 I    between atoms: C2_63  and  N_99 
REMARK   44 I    between atoms: C3_65  and  O3_87 
REMARK   45 I    between atoms: O3_66  and  C3_81 
REMARK   46 I    between atoms: O2_72  and  C2_90 
REMARK   47 I    between atoms: O2_72  and  S_104 
REMARK   48 I    between atoms: S1_77  and  N_113 
REMARK   49 I    between atoms: S1_77  and  O1S_86 
REMARK   50 I    between atoms: S1_77  and  O3S_134 
REMARK   51 I    between atoms: C4_78  and  O4_82 
REMARK   52 I    between atoms: S1_79  and  N_124 
REMARK   53 I    between atoms: S1_79  and  O2S_109 
REMARK   54 I    between atoms: S1_79  and  O3S_89 
REMARK   55 A    between atoms: O4_82  and  C1_123 
REMARK   55  A    between atoms: O4_82  and  C1_123 
REMARK   56 I    between atoms: C1_83  and  O1_112 
REMARK   57 I    between atoms: C2_84  and  N_124 
REMARK   58 I    between atoms: C6_88  and  C5_140 
REMARK   59 I    between atoms: S1_91  and  N_99 
REMARK   60 I    between atoms: S1_91  and  O2S_106 
REMARK   61 I    between atoms: C6_95  and  O6_121 
REMARK   62 I    between atoms: C6_100  and  C5_115 
REMARK   63 I    between atoms: S2_107  and  O6_132 
REMARK   64 I    between atoms: C4_110  and  O1_139 
REMARK   65 I    between atoms: C1_114  and  O1_139 
REMARK   66 I    between atoms: C5_117  and  C6_136 
REMARK   67 A    between atoms: O4_120  and  C1_135 
REMARK   67  A    between atoms: O4_120  and  C1_135 
ROOT
ATOM      1  O5  IDS d 305      79.769  22.661 102.758  0.00  0.00    -0.340 OA
ATOM      2  C1  IDS d 305      78.343  22.598 102.788  0.00  0.00     0.294 C 
ATOM      3  C2  IDS d 305      77.902  22.106 104.184  0.00  0.00     0.231 C 
ATOM      4  C3  IDS d 305      78.570  20.798 104.651  0.00  0.00     0.185 C 
ATOM      5  C4  IDS d 305      80.090  20.915 104.594  0.00  0.00     0.195 C 
ATOM      6  C5  IDS d 305      80.460  21.546 103.265  0.00  0.00     0.257 C 
ENDROOT
BRANCH   5   7
ATOM      7  O1  SGN d 304      80.507  21.829 105.597  0.00  0.00    -0.348 OA
BRANCH   7   8
ATOM      8  C1  SGN d 304      81.558  21.436 106.450  0.00  0.00     0.282 C 
ATOM      9  O5  SGN d 304      82.825  21.647 105.816  0.00  0.00    -0.349 OA
ATOM     10  C5  SGN d 304      83.109  23.016 105.462  0.00  0.00     0.181 C 
ATOM     11  C4  SGN d 304      83.127  23.856 106.733  0.00  0.00     0.186 C 
ATOM     12  C3  SGN d 304      81.747  23.755 107.381  0.00  0.00     0.173 C 
ATOM     13  C2  SGN d 304      81.501  22.296 107.718  0.00  0.00     0.157 C 
BRANCH  10  14
ATOM     14  C6  SGN d 304      84.437  23.055 104.739  0.00  0.00     0.227 C 
BRANCH  14  15
ATOM     15  O6  SGN d 304      85.190  21.894 105.071  0.00  0.00    -0.254 OA
BRANCH  15  16
ATOM     16  S2  SGN d 304      86.853  22.131 105.588  0.00  0.00     0.251 S 
ATOM     17  O6S SGN d 304      87.666  21.200 104.855  0.00  0.00    -0.572 OA
ATOM     18  O4S SGN d 304      86.931  21.899 106.992  0.00  0.00    -0.572 OA
ATOM     19  O5S SGN d 304      87.273  23.479 105.279  0.00  0.00    -0.572 OA
ENDBRANCH  15  16
ENDBRANCH  14  15
ENDBRANCH  10  14
BRANCH  11  20
ATOM     20  O4  SGN d 304      83.367  25.205 106.393  0.00  0.00    -0.348 OA
BRANCH  20  21
ATOM     21  C1  IDS d 303      84.536  25.825 106.860  0.00  0.00     0.294 C 
ATOM     22  C2  IDS d 303      84.627  27.189 106.147  0.00  0.00     0.231 C 
ATOM     23  C3  IDS d 303      83.818  28.355 106.753  0.00  0.00     0.185 C 
ATOM     24  C4  IDS d 303      83.996  28.440 108.285  0.00  0.00     0.195 C 
ATOM     25  C5  IDS d 303      83.813  27.051 108.835  0.00  0.00     0.257 C 
ATOM     26  O5  IDS d 303      84.556  25.993 108.281  0.00  0.00    -0.340 OA
BRANCH  22  27
ATOM     27  O2  IDS d 303      85.943  27.567 105.958  0.00  0.00    -0.244 OA
BRANCH  27  28
ATOM     28  S   IDS d 303      86.464  27.468 104.288  0.00  0.00     0.252 S 
ATOM     29  O2S IDS d 303      87.149  28.685 103.961  0.00  0.00    -0.572 OA
ATOM     30  O3S IDS d 303      85.286  27.270 103.468  0.00  0.00    -0.572 OA
ATOM     31  O1S IDS d 303      87.352  26.350 104.183  0.00  0.00    -0.572 OA
ENDBRANCH  27  28
ENDBRANCH  22  27
BRANCH  23  32
ATOM     32  O3  IDS d 303      82.479  28.202 106.420  0.00  0.00    -0.390 OA
ATOM     33  H   IDS d 303      82.147  27.369 106.790  0.00  0.00     0.210 HD
ENDBRANCH  23  32
BRANCH  24  34
ATOM     34  O1  SGN d 302      85.336  28.797 108.607  0.00  0.00    -0.348 OA
BRANCH  34  35
ATOM     35  C1  SGN d 302      85.544  30.012 109.293  0.00  0.00     0.282 C 
ATOM     36  C2  SGN d 302      86.980  30.469 109.045  0.00  0.00     0.157 C 
ATOM     37  C3  SGN d 302      87.977  29.647 109.816  0.00  0.00     0.173 C 
ATOM     38  C4  SGN d 302      87.648  29.644 111.312  0.00  0.00     0.186 C 
ATOM     39  C5  SGN d 302      86.252  29.030 111.433  0.00  0.00     0.181 C 
ATOM     40  O5  SGN d 302      85.320  29.879 110.711  0.00  0.00    -0.349 OA
BRANCH  36  41
ATOM     41  N   SGN d 302      87.266  30.069 107.698  0.00  0.00    -0.210 NA
ATOM     42  H   SGN d 302      86.464  29.532 107.368  0.00  0.00     0.140 HD
BRANCH  41  43
ATOM     43  S1  SGN d 302      87.582  31.301 106.509  0.00  0.00     0.156 S 
BRANCH  43  44
ATOM     44  O1S SGN d 302      88.253  30.698 105.384  0.00  0.00    -0.296 OA
ATOM     45  H   SGN d 302      87.670  30.040 104.975  0.00  0.00     0.231 HD
ENDBRANCH  43  44
BRANCH  43  46
ATOM     46  O3S SGN d 302      86.325  31.894 106.106  0.00  0.00    -0.296 OA
ATOM     47  H   SGN d 302      85.770  31.220 105.683  0.00  0.00     0.231 HD
ENDBRANCH  43  46
BRANCH  43  48
ATOM     48  O2S SGN d 302      88.417  32.279 107.136  0.00  0.00    -0.296 OA
ATOM     49  H   SGN d 302      89.255  31.867 107.400  0.00  0.00     0.231 HD
ENDBRANCH  43  48
ENDBRANCH  41  43
ENDBRANCH  36  41
BRANCH  37  50
ATOM     50  O3  SGN d 302      89.255  30.179 109.543  0.00  0.00    -0.391 OA
ATOM     51  H   SGN d 302      89.283  31.109 109.817  0.00  0.00     0.210 HD
ENDBRANCH  37  50
BRANCH  38  52
ATOM     52  O4  SGN d 302      88.583  28.824 111.997  0.00  0.00    -0.348 OA
BRANCH  52  53
ATOM     53  C1  UAP d 301      89.695  29.398 112.682  0.00  0.00     0.294 C 
ATOM     54  C2  UAP d 301      90.219  28.287 113.582  0.00  0.00     0.228 C 
ATOM     55  C3  UAP d 301      90.946  27.112 112.925  0.00  0.00     0.156 C 
ATOM     56  C4  UAP d 301      91.754  27.465 111.652  0.00  0.00     0.077 C 
ATOM     57  C5  UAP d 301      91.599  28.911 111.202  0.00  0.00     0.228 C 
ATOM     58  O5  UAP d 301      90.709  29.845 111.772  0.00  0.00    -0.343 OA
BRANCH  54  59
ATOM     59  O2  UAP d 301      91.074  28.825 114.542  0.00  0.00    -0.244 OA
BRANCH  59  60
ATOM     60  S   UAP d 301      90.439  28.680 116.168  0.00  0.00     0.252 S 
ATOM     61  O3S UAP d 301      89.143  29.305 116.174  0.00  0.00    -0.572 OA
ATOM     62  O1S UAP d 301      91.331  29.356 117.028  0.00  0.00    -0.572 OA
ATOM     63  O2S UAP d 301      90.379  27.294 116.521  0.00  0.00    -0.572 OA
ENDBRANCH  59  60
ENDBRANCH  54  59
BRANCH  55  64
ATOM     64  O3  UAP d 301      89.993  26.161 112.613  0.00  0.00    -0.393 OA
ATOM     65  H   UAP d 301      89.486  25.938 113.409  0.00  0.00     0.210 HD
ENDBRANCH  55  64
BRANCH  57  66
ATOM     66  C6  UAP d 301      92.601  29.362 110.148  0.00  0.00     0.203 C 
ATOM     67  O61 UAP d 301      93.422  28.554 109.673  0.00  0.00    -0.646 OA
ATOM     68  O62 UAP d 301      92.562  30.567 109.836  0.00  0.00    -0.646 OA
ENDBRANCH  57  66
ENDBRANCH  52  53
ENDBRANCH  38  52
BRANCH  39  69
ATOM     69  C6  SGN d 302      85.740  28.878 112.866  0.00  0.00     0.227 C 
BRANCH  69  70
ATOM     70  O6  SGN d 302      86.570  29.558 113.790  0.00  0.00    -0.254 OA
BRANCH  70  71
ATOM     71  S2  SGN d 302      85.941  31.073 114.414  0.00  0.00     0.251 S 
ATOM     72  O5S SGN d 302      84.689  30.805 115.073  0.00  0.00    -0.572 OA
ATOM     73  O6S SGN d 302      85.711  31.961 113.296  0.00  0.00    -0.572 OA
ATOM     74  O4S SGN d 302      86.888  31.639 115.332  0.00  0.00    -0.572 OA
ENDBRANCH  70  71
ENDBRANCH  69  70
ENDBRANCH  39  69
ENDBRANCH  34  35
ENDBRANCH  24  34
BRANCH  25  75
ATOM     75  C6  IDS d 303      83.460  27.021 110.307  0.00  0.00     0.206 C 
ATOM     76  O62 IDS d 303      84.304  26.509 111.072  0.00  0.00    -0.646 OA
ATOM     77  O61 IDS d 303      82.345  27.443 110.675  0.00  0.00    -0.646 OA
ENDBRANCH  25  75
ENDBRANCH  20  21
ENDBRANCH  11  20
BRANCH  12  78
ATOM     78  O3  SGN d 304      81.711  24.514 108.570  0.00  0.00    -0.391 OA
ATOM     79  H   SGN d 304      81.868  25.448 108.362  0.00  0.00     0.210 HD
ENDBRANCH  12  78
BRANCH  13  80
ATOM     80  N   SGN d 304      80.154  22.210 108.204  0.00  0.00    -0.210 NA
ATOM     81  H   SGN d 304      80.017  22.971 108.869  0.00  0.00     0.140 HD
BRANCH  80  82
ATOM     82  S1  SGN d 304      79.692  20.719 109.004  0.00  0.00     0.156 S 
BRANCH  82  83
ATOM     83  O1S SGN d 304      79.524  19.669 108.047  0.00  0.00    -0.296 OA
ATOM     84  H   SGN d 304      78.839  19.920 107.408  0.00  0.00     0.231 HD
ENDBRANCH  82  83
BRANCH  82  85
ATOM     85  O2S SGN d 304      78.469  20.955 109.671  0.00  0.00    -0.296 OA
ATOM     86  H   SGN d 304      77.788  21.195 109.023  0.00  0.00     0.231 HD
ENDBRANCH  82  85
BRANCH  82  87
ATOM     87  O3S SGN d 304      80.698  20.366 109.953  0.00  0.00    -0.296 OA
ATOM     88  H   SGN d 304      81.536  20.205 109.491  0.00  0.00     0.231 HD
ENDBRANCH  82  87
ENDBRANCH  80  82
ENDBRANCH  13  80
ENDBRANCH   7   8
ENDBRANCH   5   7
BRANCH   4  89
ATOM     89  O3  IDS d 305      78.140  19.765 103.866  0.00  0.00    -0.390 OA
ATOM     90  H   IDS d 305      77.173  19.704 103.913  0.00  0.00     0.210 HD
ENDBRANCH   4  89
BRANCH   6  91
ATOM     91  C6  IDS d 305      81.835  21.221 102.762  0.00  0.00     0.206 C 
ATOM     92  O61 IDS d 305      82.239  20.045 102.789  0.00  0.00    -0.646 OA
ATOM     93  O62 IDS d 305      82.516  22.188 102.387  0.00  0.00    -0.646 OA
ENDBRANCH   6  91
BRANCH   3  94
ATOM     94  O2  IDS d 305      78.061  23.099 105.152  0.00  0.00    -0.244 OA
BRANCH  94  95
ATOM     95  S   IDS d 305      76.794  23.109 106.337  0.00  0.00     0.252 S 
ATOM     96  O2S IDS d 305      75.642  22.473 105.788  0.00  0.00    -0.572 OA
ATOM     97  O3S IDS d 305      76.536  24.471 106.667  0.00  0.00    -0.572 OA
ATOM     98  O1S IDS d 305      77.280  22.401 107.454  0.00  0.00    -0.572 OA
ENDBRANCH  94  95
ENDBRANCH   3  94
BRANCH   2  99
ATOM     99  O4  SGN d 306      77.851  21.619 101.919  0.00  0.00    -0.348 OA
BRANCH  99 100
ATOM    100  C4  SGN d 306      77.288  21.952 100.677  0.00  0.00     0.186 C 
ATOM    101  C3  SGN d 306      78.032  21.143  99.609  0.00  0.00     0.173 C 
ATOM    102  C2  SGN d 306      77.399  21.441  98.268  0.00  0.00     0.157 C 
ATOM    103  C1  SGN d 306      75.940  21.020  98.416  0.00  0.00     0.282 C 
ATOM    104  O5  SGN d 306      75.284  21.838  99.363  0.00  0.00    -0.349 OA
ATOM    105  C5  SGN d 306      75.801  21.551 100.672  0.00  0.00     0.181 C 
BRANCH 101 106
ATOM    106  O3  SGN d 306      79.398  21.513  99.581  0.00  0.00    -0.391 OA
ATOM    107  H   SGN d 306      79.859  20.996  98.902  0.00  0.00     0.210 HD
ENDBRANCH 101 106
BRANCH 102 108
ATOM    108  N   SGN d 306      78.017  20.505  97.368  0.00  0.00    -0.210 NA
ATOM    109  H   SGN d 306      77.285  19.873  97.043  0.00  0.00     0.140 HD
BRANCH 108 110
ATOM    110  S1  SGN d 306      78.843  21.123  95.936  0.00  0.00     0.156 S 
BRANCH 110 111
ATOM    111  O2S SGN d 306      78.825  20.069  94.973  0.00  0.00    -0.296 OA
ATOM    112  H   SGN d 306      77.907  19.851  94.749  0.00  0.00     0.231 HD
ENDBRANCH 110 111
BRANCH 110 113
ATOM    113  O1S SGN d 306      78.155  22.293  95.431  0.00  0.00    -0.296 OA
ATOM    114  H   SGN d 306      77.239  22.060  95.212  0.00  0.00     0.231 HD
ENDBRANCH 110 113
BRANCH 110 115
ATOM    115  O3S SGN d 306      80.207  21.447  96.268  0.00  0.00    -0.296 OA
ATOM    116  H   SGN d 306      80.655  20.655  96.604  0.00  0.00     0.231 HD
ENDBRANCH 110 115
ENDBRANCH 108 110
ENDBRANCH 102 108
BRANCH 103 117
ATOM    117  O1  SGN d 306      75.248  20.746  97.229  0.00  0.00    -0.348 OA
BRANCH 117 118
ATOM    118  C4  IDU d 307      75.112  19.348  96.886  0.00  0.00     0.195 C 
ATOM    119  C3  IDU d 307      74.332  19.161  95.582  0.00  0.00     0.185 C 
ATOM    120  C2  IDU d 307      72.830  19.354  95.858  0.00  0.00     0.231 C 
ATOM    121  C1  IDU d 307      72.279  18.240  96.784  0.00  0.00     0.294 C 
ATOM    122  O5  IDU d 307      72.976  18.382  98.036  0.00  0.00    -0.340 OA
ATOM    123  C5  IDU d 307      74.397  18.609  98.041  0.00  0.00     0.257 C 
BRANCH 119 124
ATOM    124  O3  IDU d 307      74.772  20.060  94.623  0.00  0.00    -0.390 OA
ATOM    125  H   IDU d 307      74.633  20.966  94.941  0.00  0.00     0.210 HD
ENDBRANCH 119 124
BRANCH 120 126
ATOM    126  O2  IDU d 307      72.130  19.379  94.635  0.00  0.00    -0.244 OA
BRANCH 126 127
ATOM    127  S   IDU d 307      71.964  20.971  93.893  0.00  0.00     0.252 S 
ATOM    128  O3S IDU d 307      70.607  21.050  93.419  0.00  0.00    -0.572 OA
ATOM    129  O1S IDU d 307      72.890  21.048  92.810  0.00  0.00    -0.572 OA
ATOM    130  O2S IDU d 307      72.260  21.983  94.867  0.00  0.00    -0.572 OA
ENDBRANCH 126 127
ENDBRANCH 120 126
BRANCH 121 131
ATOM    131  O4  SGN d 308      72.525  16.961  96.152  0.00  0.00    -0.348 OA
BRANCH 131 132
ATOM    132  C4  SGN d 308      71.568  15.862  96.155  0.00  0.00     0.186 C 
ATOM    133  C3  SGN d 308      71.230  15.425  97.579  0.00  0.00     0.173 C 
ATOM    134  C2  SGN d 308      70.280  14.238  97.428  0.00  0.00     0.157 C 
ATOM    135  C1  SGN d 308      68.960  14.597  96.723  0.00  0.00     0.278 C 
ATOM    136  O5  SGN d 308      69.275  15.192  95.432  0.00  0.00    -0.350 OA
ATOM    137  C5  SGN d 308      70.262  16.281  95.422  0.00  0.00     0.181 C 
BRANCH 133 138
ATOM    138  O3  SGN d 308      72.417  15.023  98.235  0.00  0.00    -0.391 OA
ATOM    139  H   SGN d 308      72.839  14.310  97.731  0.00  0.00     0.210 HD
ENDBRANCH 133 138
BRANCH 134 140
ATOM    140  N   SGN d 308      70.034  13.657  98.730  0.00  0.00    -0.210 NA
ATOM    141  H   SGN d 308      69.025  13.539  98.828  0.00  0.00     0.140 HD
BRANCH 140 142
ATOM    142  S1  SGN d 308      70.796  12.077  99.078  0.00  0.00     0.156 S 
BRANCH 142 143
ATOM    143  O1S SGN d 308      70.100  11.035  98.359  0.00  0.00    -0.296 OA
ATOM    144  H   SGN d 308      70.173  11.196  97.405  0.00  0.00     0.231 HD
ENDBRANCH 142 143
BRANCH 142 145
ATOM    145  O3S SGN d 308      72.191  12.099  98.683  0.00  0.00    -0.296 OA
ATOM    146  H   SGN d 308      72.254  12.245  97.726  0.00  0.00     0.231 HD
ENDBRANCH 142 145
BRANCH 142 147
ATOM    147  O2S SGN d 308      70.702  11.861 100.491  0.00  0.00    -0.296 OA
ATOM    148  H   SGN d 308      71.108  11.009 100.716  0.00  0.00     0.231 HD
ENDBRANCH 142 147
ENDBRANCH 140 142
ENDBRANCH 134 140
BRANCH 135 149
ATOM    149  O1  SGN d 308      68.182  15.458  97.550  0.00  0.00    -0.369 OA
ATOM    150  H   SGN d 308      68.681  16.269  97.732  0.00  0.00     0.212 HD
ENDBRANCH 135 149
BRANCH 137 151
ATOM    151  C6  SGN d 308      70.550  16.705  93.975  0.00  0.00     0.227 C 
BRANCH 151 152
ATOM    152  O6  SGN d 308      71.462  15.773  93.359  0.00  0.00    -0.254 OA
BRANCH 152 153
ATOM    153  S2  SGN d 308      73.069  16.345  92.814  0.00  0.00     0.251 S 
ATOM    154  O4S SGN d 308      72.974  17.692  92.335  0.00  0.00    -0.572 OA
ATOM    155  O5S SGN d 308      73.524  15.489  91.754  0.00  0.00    -0.572 OA
ATOM    156  O6S SGN d 308      73.995  16.251  93.919  0.00  0.00    -0.572 OA
ENDBRANCH 152 153
ENDBRANCH 151 152
ENDBRANCH 137 151
ENDBRANCH 131 132
ENDBRANCH 121 131
BRANCH 123 157
ATOM    157  C6  IDU d 307      75.279  17.508  98.595  0.00  0.00     0.206 C 
ATOM    158  O61 IDU d 307      75.561  16.537  97.871  0.00  0.00    -0.646 OA
ATOM    159  O62 IDU d 307      75.791  17.722  99.714  0.00  0.00    -0.646 OA
ENDBRANCH 123 157
ENDBRANCH 117 118
ENDBRANCH 103 117
BRANCH 105 160
ATOM    160  C6  SGN d 306      75.005  22.335 101.711  0.00  0.00     0.227 C 
BRANCH 160 161
ATOM    161  O6  SGN d 306      73.619  22.334 101.353  0.00  0.00    -0.254 OA
BRANCH 161 162
ATOM    162  S2  SGN d 306      72.546  21.070 102.013  0.00  0.00     0.251 S 
ATOM    163  O4S SGN d 306      71.559  20.739 101.017  0.00  0.00    -0.572 OA
ATOM    164  O6S SGN d 306      73.333  19.905 102.380  0.00  0.00    -0.572 OA
ATOM    165  O5S SGN d 306      71.902  21.592 103.187  0.00  0.00    -0.572 OA
ENDBRANCH 161 162
ENDBRANCH 160 161
ENDBRANCH 105 160
ENDBRANCH  99 100
ENDBRANCH   2  99
TORSDOF 67
