REMARK 7 active torsions
REMARK    1  A    between atoms: atom4  and  atom_
REMARK    2  A    between atoms: atom7  and  atom_
REMARK    3  A    between atoms: atom3  and  atom_
REMARK    4  A    between atoms: atom1  and  atom_
REMARK    5  A    between atoms: atom1  and  atom8
REMARK    6  A    between atoms: atom6  and  atom_
REMARK    7  A    between atoms: atom5  and  atom_
ROOT
ATOM      1  C5  NAG d1770      30.350  21.889  31.603  0.00  0.00     0.179 C 
ATOM      2  O5  NAG d1770      31.536  21.339  31.082  0.00  0.00    -0.349 OA
ATOM      3  C2  NAG d1770      30.321  19.538  29.928  0.00  0.00     0.171 C 
ATOM      4  C3  NAG d1770      29.047  20.080  30.560  0.00  0.00     0.183 C 
ATOM      5  C1  NAG d1770      31.326  20.660  29.826  0.00  0.00     0.282 C 
ATOM      6  C4  NAG d1770      29.318  20.834  31.871  0.00  0.00     0.180 C 
ENDROOT
BRANCH   1  31
ATOM     31  C6  NAG d1770      30.704  22.740  32.852  0.00  0.00     0.198 C 
ATOM     32  O6  NAG d1770      31.196  21.824  33.784  0.00  0.00    -0.398 OA
ATOM     33  H   NAG d1770      30.523  21.148  33.959  0.00  0.00     0.209 HD
ENDBRANCH   1  31
BRANCH   3  22
ATOM     22  N2  NAG d1770      30.057  18.800  28.725  0.00  0.00    -0.349 N 
ATOM     23  C7  NAG d1770      30.199  17.503  28.644  0.00  0.00     0.214 C 
ATOM     24  C8  NAG d1770      29.837  16.945  27.252  0.00  0.00     0.117 C 
ATOM     25  O7  NAG d1770      30.617  16.814  29.624  0.00  0.00    -0.274 OA
ATOM     26  H   NAG d1770      29.756  19.292  27.927  0.00  0.00     0.163 HD
ENDBRANCH   3  22
BRANCH   4   7
ATOM      7  O3  NAG d1770      28.021  19.116  30.745  0.00  0.00    -0.348 OA
BRANCH   7   8
ATOM      8  C1  GC4 d1769      27.040  19.019  29.786  0.00  0.00     0.292 C 
ATOM      9  C2  GC4 d1769      26.308  17.670  29.782  0.00  0.00     0.202 C 
ATOM     10  C3  GC4 d1769      25.311  17.668  28.615  0.00  0.00     0.154 C 
ATOM     11  C4  GC4 d1769      24.540  18.972  28.422  0.00  0.00     0.077 C 
ATOM     12  C5  GC4 d1769      25.286  20.259  28.796  0.00  0.00     0.224 C 
ATOM     13  O5  GC4 d1769      26.089  20.101  29.950  0.00  0.00    -0.343 OA
ATOM     14  O2  GC4 d1769      27.215  16.571  29.717  0.00  0.00    -0.388 OA
ATOM     15  H   GC4 d1769      27.731  16.625  28.897  0.00  0.00     0.210 HD
ATOM     16  O3  GC4 d1769      24.347  16.627  28.813  0.00  0.00    -0.393 OA
ATOM     17  H   GC4 d1769      23.835  16.809  29.616  0.00  0.00     0.210 HD
ATOM     18  C6  GC4 d1769      24.445  21.502  28.864  0.00  0.00     0.170 C 
ATOM     19  O6B GC4 d1769      24.631  22.344  29.779  0.00  0.00    -0.648 OA
BRANCH  18  20
ATOM     20  O6A GC4 d1769      23.634  21.748  27.961  0.00  0.00    -0.774 OA
ATOM     21  H   GC4 d1769      23.491  21.124  27.277  0.00  0.00     0.167 HD
ENDBRANCH  18  20
ENDBRANCH   7   8
ENDBRANCH   4   7
BRANCH   5  29
ATOM     29  O1  NAG d1770      32.560  20.184  29.468  0.00  0.00    -0.369 OA
ATOM     30  H   NAG d1770      33.187  20.922  29.409  0.00  0.00     0.212 HD
ENDBRANCH   5  29
BRANCH   6  27
ATOM     27  O4  NAG d1770      28.150  21.455  32.365  0.00  0.00    -0.390 OA
ATOM     28  H   NAG d1770      28.356  21.921  33.191  0.00  0.00     0.210 HD
ENDBRANCH   6  27
TORSDOF 7
