REMARK 10 active torsions
REMARK    1  A    between atoms: atom1  and  atom_
REMARK    2  A    between atoms: atom7  and  atom_
REMARK    3  A    between atoms: atom1  and  atom2
REMARK    4  A    between atoms: atom3  and  atom_
REMARK    5  A    between atoms: atom4  and  atom_
REMARK    6  A    between atoms: atom3  and  atom8
REMARK    7  A    between atoms: atom1  and  atom4
REMARK    8  A    between atoms: atom5  and  atom_
REMARK    9  A    between atoms: atom2  and  atom7
REMARK    10  A    between atoms: atom2  and  atom_
ROOT
ATOM      1  C1  SUS d 141      -2.321  12.358  17.367  0.00  0.00     0.282 C 
ATOM      2  C4  SUS d 141      -0.791  13.256  15.121  0.00  0.00     0.181 C 
ATOM      3  C3  SUS d 141      -0.947  11.757  15.351  0.00  0.00     0.199 C 
ATOM      4  C5  SUS d 141      -0.999  14.033  16.416  0.00  0.00     0.181 C 
ATOM      5  C2  SUS d 141      -2.214  11.456  16.143  0.00  0.00     0.162 C 
ATOM      6  O5  SUS d 141      -2.257  13.707  16.963  0.00  0.00    -0.349 OA
ENDROOT
BRANCH   1   7
ATOM      7  O4  IDY d 142      -1.256  12.081  18.248  0.00  0.00    -0.348 OA
BRANCH   7   8
ATOM      8  C4  IDY d 142      -0.686  12.518  19.810  0.00  0.00     0.195 C 
ATOM      9  C5  IDY d 142       0.700  12.514  20.456  0.00  0.00     0.253 C 
ATOM     10  O5  IDY d 142       1.278  11.179  20.560  0.00  0.00    -0.340 OA
ATOM     11  C1  IDY d 142       0.494  10.029  20.969  0.00  0.00     0.293 C 
ATOM     12  C2  IDY d 142      -0.866   9.921  20.318  0.00  0.00     0.231 C 
ATOM     13  C3  IDY d 142      -1.434  11.299  20.270  0.00  0.00     0.185 C 
ATOM     14  C6  IDY d 142       1.604  13.392  19.612  0.00  0.00     0.172 C 
ATOM     15  O61 IDY d 142       2.210  12.929  18.585  0.00  0.00    -0.648 OA
ATOM     18  O1  IDY d 142       0.117  10.004  22.413  0.00  0.00    -0.363 OA
ATOM     19  C7  IDY d 142       1.406  10.630  22.955  0.00  0.00     0.204 C 
ATOM     25  O3  IDY d 142      -2.744  11.479  20.996  0.00  0.00    -0.390 OA
ATOM     26  H   IDY d 142      -3.036  12.400  20.912  0.00  0.00     0.210 HD
BRANCH  12  20
ATOM     20  O2  IDY d 142      -0.684   9.304  19.015  0.00  0.00    -0.244 OA
ATOM     21  S   IDY d 142      -0.383   7.784  18.953  0.00  0.00     0.252 S 
ATOM     22  OS1 IDY d 142       0.142   7.466  17.600  0.00  0.00    -0.572 OA
ATOM     23  OS2 IDY d 142      -1.627   7.035  19.218  0.00  0.00    -0.572 OA
ATOM     24  OS3 IDY d 142       0.609   7.378  19.990  0.00  0.00    -0.572 OA
ENDBRANCH  12  20
BRANCH  14  16
ATOM     16  O62 IDY d 142       1.858  14.649  19.950  0.00  0.00    -0.774 OA
ENDBRANCH  14  16
ENDBRANCH   7   8
ENDBRANCH   1   7
BRANCH   2  44
ATOM     44  O4  SUS d 141       0.499  13.522  14.616  0.00  0.00    -0.390 OA
ATOM     45  H   SUS d 141       1.164  13.235  15.261  0.00  0.00     0.210 HD
ENDBRANCH   2  44
BRANCH   3  33
ATOM     33  O3  SUS d 141      -1.001  11.094  14.109  0.00  0.00    -0.247 OA
ATOM     34  S3  SUS d 141      -0.430   9.831  13.778  0.00  0.00     0.252 S 
ATOM     35  O8S SUS d 141      -0.086   8.840  14.771  0.00  0.00    -0.572 OA
ATOM     36  O7S SUS d 141       0.773  10.136  13.048  0.00  0.00    -0.572 OA
ATOM     37  O9S SUS d 141      -1.349   9.276  12.808  0.00  0.00    -0.572 OA
ENDBRANCH   3  33
BRANCH   4  38
ATOM     38  C6  SUS d 141      -0.924  15.534  16.171  0.00  0.00     0.227 C 
BRANCH  38  39
ATOM     39  O6  SUS d 141      -2.137  16.135  16.563  0.00  0.00    -0.254 OA
ATOM     40  S2  SUS d 141      -2.752  17.284  15.705  0.00  0.00     0.251 S 
ATOM     41  O4S SUS d 141      -2.072  17.266  14.413  0.00  0.00    -0.572 OA
ATOM     42  O5S SUS d 141      -4.172  16.988  15.544  0.00  0.00    -0.572 OA
ATOM     43  O6S SUS d 141      -2.527  18.531  16.431  0.00  0.00    -0.572 OA
ENDBRANCH  38  39
ENDBRANCH   4  38
BRANCH   5  27
ATOM     27  N   SUS d 141      -2.226  10.065  16.549  0.00  0.00    -0.189 NA
ATOM     28  H   SUS d 141      -1.460   9.607  16.054  0.00  0.00     0.143 HD
BRANCH  27  29
ATOM     29  S1  SUS d 141      -3.531   9.172  16.307  0.00  0.00     0.183 S 
ATOM     30  O2S SUS d 141      -3.561   8.849  14.883  0.00  0.00    -0.582 OA
ATOM     31  O1S SUS d 141      -4.676   9.979  16.717  0.00  0.00    -0.582 OA
ATOM     32  O3S SUS d 141      -3.385   7.977  17.133  0.00  0.00    -0.582 OA
ENDBRANCH  27  29
ENDBRANCH   5  27
TORSDOF 10
