REMARK WARNING: 32 MAX_TORS EXCEEDED!!!
REMARK  40 active torsions:
REMARK  status: ('A' for Active; 'I' for Inactive)
REMARK    1 I    between atoms: N_1  and  C2_50 
REMARK    2 I    between atoms: N_1  and  S1_70 
REMARK    3 I    between atoms: C1_2  and  O4_62 
REMARK    4 I    between atoms: O1S_4  and  S1_70 
REMARK    5 I    between atoms: C6_5  and  C5_85 
REMARK    6 I    between atoms: C6_5  and  O6_55 
REMARK    7 I    between atoms: N_7  and  C2_23 
REMARK    8 I    between atoms: N_7  and  S1_49 
REMARK    9 I    between atoms: C4_11  and  O4_21 
REMARK   10 I    between atoms: O2_12  and  C2_42 
REMARK   11 I    between atoms: C6_13  and  C5_53 
REMARK   12 I    between atoms: C6_13  and  O6_63 
REMARK   13 I    between atoms: O6_16  and  C6_69 
REMARK   14 I    between atoms: O6_16  and  S2_79 
REMARK   15 I    between atoms: C3_17  and  O3_78 
REMARK   16 I    between atoms: C3_18  and  O3_83 
REMARK   17 I    between atoms: C6_19  and  C5_20 
REMARK   18 I    between atoms: O4_21  and  C1_52 
REMARK   19 I    between atoms: C3_22  and  O3_37 
REMARK   20 I    between atoms: O2_25  and  C2_81 
REMARK   21 I    between atoms: O2_25  and  S_71 
REMARK   22 I    between atoms: O3S_26  and  S1_49 
REMARK   23 I    between atoms: O4_28  and  C1_51 
REMARK   24 I    between atoms: O4_28  and  C4_30 
REMARK   25 I    between atoms: O3_29  and  C3_72 
REMARK   26 I    between atoms: S2_31  and  O6_63 
REMARK   27 I    between atoms: C4_33  and  O4_40 
REMARK   28 I    between atoms: C4_34  and  O4_64 
REMARK   29 I    between atoms: O6A_39  and  C1_73 
REMARK   30 I    between atoms: S_41  and  O6_55 
REMARK   31 I    between atoms: C1_46  and  O4_64 
REMARK   32 I    between atoms: O2S_47  and  S1_49 
REMARK   33 I    between atoms: S1_49  and  O1S_59 
REMARK   34 I    between atoms: O3S_54  and  S1_70 
REMARK   35 I    between atoms: N_58  and  C2_82 
REMARK      I    between atoms: N_58  and  C_60 
REMARK   36 I    between atoms: O3_61  and  C3_75 
REMARK   37 I    between atoms: O4_62  and  C4_68 
REMARK   38 I    between atoms: C5_67  and  C6_86 
REMARK   39 I    between atoms: C6_69  and  C5_84 
REMARK   40 I    between atoms: S1_70  and  O2S_80 
ROOT
ATOM      1  C4  SGN d   3      17.343  18.035  -3.248  0.00  0.00     0.186 C 
ATOM      2  C3  SGN d   3      15.872  18.307  -2.959  0.00  0.00     0.173 C 
ATOM      3  C2  SGN d   3      15.245  17.158  -2.177  0.00  0.00     0.157 C 
ATOM      4  O5  SGN d   3      16.944  15.659  -2.942  0.00  0.00    -0.349 OA
ATOM      5  C1  SGN d   3      15.546  15.795  -2.806  0.00  0.00     0.282 C 
ATOM      6  C5  SGN d   3      17.522  16.620  -3.804  0.00  0.00     0.181 C 
ENDROOT
BRANCH   5   7
ATOM      7  O4  IDS d   4      14.833  15.594  -4.049  0.00  0.00    -0.348 OA
BRANCH   7   8
ATOM      8  C4  IDS d   4      15.153  14.352  -4.578  0.00  0.00     0.195 C 
ATOM      9  C5  IDS d   4      14.994  14.372  -6.067  0.00  0.00     0.257 C 
ATOM     10  O5  IDS d   4      13.660  14.404  -6.394  0.00  0.00    -0.340 OA
ATOM     11  C1  IDS d   4      13.084  13.193  -6.110  0.00  0.00     0.294 C 
ATOM     12  C2  IDS d   4      12.989  13.025  -4.627  0.00  0.00     0.231 C 
ATOM     13  C3  IDS d   4      14.320  13.269  -3.957  0.00  0.00     0.185 C 
BRANCH   9  14
ATOM     14  C6  IDS d   4      15.663  15.587  -6.633  0.00  0.00     0.206 C 
ATOM     15  O62 IDS d   4      16.916  15.607  -6.774  0.00  0.00    -0.646 OA
ATOM     16  O61 IDS d   4      14.970  16.588  -6.966  0.00  0.00    -0.646 OA
ENDBRANCH   9  14
BRANCH  11  17
ATOM     17  O4  SGN d   5      13.763  12.055  -6.686  0.00  0.00    -0.348 OA
BRANCH  17  18
ATOM     18  C4  SGN d   5      13.502  11.937  -8.074  0.00  0.00     0.186 C 
ATOM     19  C5  SGN d   5      12.490  10.817  -8.316  0.00  0.00     0.181 C 
ATOM     20  O5  SGN d   5      12.431  10.507  -9.688  0.00  0.00    -0.349 OA
ATOM     21  C1  SGN d   5      13.620   9.891 -10.123  0.00  0.00     0.280 C 
ATOM     22  C2  SGN d   5      14.759  10.909 -10.092  0.00  0.00     0.157 C 
ATOM     23  C3  SGN d   5      14.841  11.682  -8.769  0.00  0.00     0.173 C 
BRANCH  19  24
ATOM     24  C6  SGN d   5      11.090  11.191  -7.839  0.00  0.00     0.227 C 
BRANCH  24  25
ATOM     25  O6  SGN d   5      10.488  12.072  -8.763  0.00  0.00    -0.254 OA
BRANCH  25  26
ATOM     26  S2  SGN d   5       8.945  12.316  -8.713  0.00  0.00     0.251 S 
ATOM     27  O4S SGN d   5       8.689  13.643  -9.258  0.00  0.00    -0.572 OA
ATOM     28  O5S SGN d   5       8.324  11.270  -9.521  0.00  0.00    -0.572 OA
ATOM     29  O6S SGN d   5       8.538  12.252  -7.313  0.00  0.00    -0.572 OA
ENDBRANCH  25  26
ENDBRANCH  24  25
ENDBRANCH  19  24
BRANCH  21  30
ATOM     30  O6A BDP d   6      13.959   8.735  -9.333  0.00  0.00    -0.364 OA
ATOM     31  C6  BDP d   6      13.173   7.668  -9.726  0.00  0.00     0.204 C 
ENDBRANCH  21  30
BRANCH  22  32
ATOM     32  N   SGN d   5      16.031  10.248 -10.360  0.00  0.00    -0.210 NA
ATOM     33  H   SGN d   5      15.952   9.303  -9.984  0.00  0.00     0.140 HD
BRANCH  32  34
ATOM     34  S1  SGN d   5      16.585  10.097 -11.861  0.00  0.00     0.156 S 
BRANCH  34  35
ATOM     35  O1S SGN d   5      15.732   9.126 -12.541  0.00  0.00    -0.296 OA
ATOM     36  H   SGN d   5      15.815   8.262 -12.107  0.00  0.00     0.231 HD
ENDBRANCH  34  35
BRANCH  34  37
ATOM     37  O3S SGN d   5      17.963   9.624 -11.774  0.00  0.00    -0.296 OA
ATOM     38  H   SGN d   5      17.977   8.743 -11.368  0.00  0.00     0.231 HD
ENDBRANCH  34  37
BRANCH  34  39
ATOM     39  O2S SGN d   5      16.506  11.423 -12.467  0.00  0.00    -0.296 OA
ATOM     40  H   SGN d   5      15.579  11.705 -12.509  0.00  0.00     0.231 HD
ENDBRANCH  34  39
ENDBRANCH  32  34
ENDBRANCH  22  32
BRANCH  23  41
ATOM     41  O3  SGN d   5      15.452  12.930  -9.015  0.00  0.00    -0.391 OA
ATOM     42  H   SGN d   5      16.305  12.791  -9.456  0.00  0.00     0.210 HD
ENDBRANCH  23  41
ENDBRANCH  17  18
ENDBRANCH  11  17
BRANCH  12  43
ATOM     43  O2  IDS d   4      12.020  13.868  -4.116  0.00  0.00    -0.244 OA
BRANCH  43  44
ATOM     44  S   IDS d   4      10.670  13.343  -3.858  0.00  0.00     0.252 S 
ATOM     45  O1S IDS d   4       9.804  14.522  -3.732  0.00  0.00    -0.572 OA
ATOM     46  O2S IDS d   4      10.240  12.519  -4.963  0.00  0.00    -0.572 OA
ATOM     47  O3S IDS d   4      10.654  12.572  -2.637  0.00  0.00    -0.572 OA
ENDBRANCH  43  44
ENDBRANCH  12  43
BRANCH  13  48
ATOM     48  O3  IDS d   4      15.040  12.095  -4.006  0.00  0.00    -0.390 OA
ATOM     49  H   IDS d   4      15.902  12.226  -3.581  0.00  0.00     0.210 HD
ENDBRANCH  13  48
ENDBRANCH   7   8
ENDBRANCH   5   7
BRANCH   3  50
ATOM     50  N   SGN d   3      13.818  17.376  -2.049  0.00  0.00    -0.210 NA
ATOM     51  H   SGN d   3      13.386  17.021  -2.902  0.00  0.00     0.140 HD
BRANCH  50  52
ATOM     52  S1  SGN d   3      13.032  16.724  -0.825  0.00  0.00     0.156 S 
BRANCH  52  53
ATOM     53  O3S SGN d   3      13.692  17.185   0.404  0.00  0.00    -0.296 OA
ATOM     54  H   SGN d   3      13.609  18.149   0.474  0.00  0.00     0.231 HD
ENDBRANCH  52  53
BRANCH  52  55
ATOM     55  O2S SGN d   3      11.654  17.170  -0.924  0.00  0.00    -0.296 OA
ATOM     56  H   SGN d   3      11.617  18.132  -0.808  0.00  0.00     0.231 HD
ENDBRANCH  52  55
BRANCH  52  57
ATOM     57  O1S SGN d   3      13.118  15.272  -0.997  0.00  0.00    -0.296 OA
ATOM     58  H   SGN d   3      14.044  14.992  -0.928  0.00  0.00     0.231 HD
ENDBRANCH  52  57
ENDBRANCH  50  52
ENDBRANCH   3  50
BRANCH   2  59
ATOM     59  O3  SGN d   3      15.715  19.520  -2.243  0.00  0.00    -0.391 OA
ATOM     60  H   SGN d   3      16.168  19.452  -1.388  0.00  0.00     0.210 HD
ENDBRANCH   2  59
BRANCH   6  61
ATOM     61  C6  SGN d   3      18.992  16.261  -3.980  0.00  0.00     0.227 C 
BRANCH  61  62
ATOM     62  O6  SGN d   3      19.581  16.140  -2.705  0.00  0.00    -0.254 OA
BRANCH  62  63
ATOM     63  S2  SGN d   3      21.121  15.928  -2.579  0.00  0.00     0.251 S 
ATOM     64  O4S SGN d   3      21.764  17.050  -3.257  0.00  0.00    -0.572 OA
ATOM     65  O5S SGN d   3      21.420  14.663  -3.246  0.00  0.00    -0.572 OA
ATOM     66  O6S SGN d   3      21.422  15.900  -1.150  0.00  0.00    -0.572 OA
ENDBRANCH  62  63
ENDBRANCH  61  62
ENDBRANCH   6  61
BRANCH   1  67
ATOM     67  O4  SGN d   3      17.803  18.990  -4.184  0.00  0.00    -0.348 OA
BRANCH  67  68
ATOM     68  C1  BDP d   2      19.106  19.479  -3.810  0.00  0.00     0.292 C 
ATOM     69  O5  BDP d   2      19.051  20.538  -2.929  0.00  0.00    -0.340 OA
ATOM     70  C5  BDP d   2      20.301  20.884  -2.431  0.00  0.00     0.257 C 
ATOM     71  C4  BDP d   2      21.188  21.384  -3.534  0.00  0.00     0.195 C 
ATOM     72  C3  BDP d   2      21.210  20.420  -4.674  0.00  0.00     0.183 C 
ATOM     73  C2  BDP d   2      19.854  19.919  -5.026  0.00  0.00     0.204 C 
BRANCH  70  74
ATOM     74  C6  BDP d   2      20.164  21.890  -1.325  0.00  0.00     0.206 C 
ATOM     75  O6A BDP d   2      19.608  23.003  -1.528  0.00  0.00    -0.646 OA
ATOM     76  O6B BDP d   2      20.607  21.607  -0.182  0.00  0.00    -0.646 OA
ENDBRANCH  70  74
BRANCH  71  77
ATOM     77  O4  BDP d   2      22.465  21.504  -3.011  0.00  0.00    -0.348 OA
BRANCH  77  78
ATOM     78  C1  NGY d   1      23.258  22.461  -3.745  0.00  0.00     0.286 C 
ATOM     79  O5  NGY d   1      23.216  23.734  -3.207  0.00  0.00    -0.349 OA
ATOM     80  C5  NGY d   1      23.735  23.834  -1.930  0.00  0.00     0.181 C 
ATOM     81  C4  NGY d   1      25.167  23.423  -1.923  0.00  0.00     0.180 C 
ATOM     82  C3  NGY d   1      25.280  22.036  -2.452  0.00  0.00     0.177 C 
ATOM     83  C2  NGY d   1      24.669  21.971  -3.809  0.00  0.00     0.170 C 
BRANCH  80  84
ATOM     84  C6  NGY d   1      23.617  25.236  -1.429  0.00  0.00     0.227 C 
BRANCH  84  85
ATOM     85  O6  NGY d   1      24.342  26.111  -2.215  0.00  0.00    -0.254 OA
BRANCH  85  86
ATOM     86  S   NGY d   1      23.981  27.537  -2.221  0.00  0.00     0.251 S 
ATOM     87  O8  NGY d   1      22.727  27.617  -2.987  0.00  0.00    -0.572 OA
ATOM     88  O9  NGY d   1      23.775  28.012  -0.871  0.00  0.00    -0.572 OA
ATOM     89  O7  NGY d   1      25.022  28.305  -2.857  0.00  0.00    -0.572 OA
ENDBRANCH  85  86
ENDBRANCH  84  85
ENDBRANCH  80  84
BRANCH  81  90
ATOM     90  O4  NGY d   1      25.650  23.470  -0.632  0.00  0.00    -0.390 OA
ATOM     91  H   NGY d   1      25.134  22.869  -0.072  0.00  0.00     0.210 HD
ENDBRANCH  81  90
BRANCH  82  92
ATOM     92  O3  NGY d   1      26.607  21.672  -2.521  0.00  0.00    -0.391 OA
ATOM     93  H   NGY d   1      27.078  22.279  -3.112  0.00  0.00     0.210 HD
ENDBRANCH  82  92
BRANCH  83  94
ATOM     94  N   NGY d   1      24.670  20.610  -4.256  0.00  0.00    -0.349 N 
ATOM     95  C   NGY d   1      25.564  20.151  -5.274  0.00  0.00     0.214 C 
ATOM     96  CH3 NGY d   1      25.516  18.723  -5.700  0.00  0.00     0.117 C 
ATOM     97  O   NGY d   1      26.365  20.916  -5.795  0.00  0.00    -0.274 OA
ATOM     98  H   NGY d   1      24.038  19.973  -3.851  0.00  0.00     0.163 HD
ENDBRANCH  83  94
ENDBRANCH  77  78
ENDBRANCH  71  77
BRANCH  72  99
ATOM     99  O3  BDP d   2      21.730  21.041  -5.789  0.00  0.00    -0.390 OA
ATOM    100  H   BDP d   2      21.162  21.786  -6.039  0.00  0.00     0.210 HD
ENDBRANCH  72  99
BRANCH  73 101
ATOM    101  O2  BDP d   2      19.993  18.847  -5.888  0.00  0.00    -0.388 OA
ATOM    102  H   BDP d   2      20.478  19.129  -6.679  0.00  0.00     0.210 HD
ENDBRANCH  73 101
ENDBRANCH  67  68
ENDBRANCH   1  67
TORSDOF 40
