REMARK WARNING: 32 MAX_TORS EXCEEDED!!!
REMARK  51 active torsions:
REMARK  status: ('A' for Active; 'I' for Inactive)
REMARK    1  A    between atoms: C2_2  and  N_35 
REMARK    2  A    between atoms: C1_4  and  O4_13 
REMARK    3  A    between atoms: S2_5  and  O6_61 
REMARK    4  A    between atoms: C6_6  and  C5_94 
REMARK    5  A    between atoms: S1_7  and  N_60 
REMARK    6  A    between atoms: S1_7  and  O1S_21 
REMARK    7  A    between atoms: S1_7  and  O2S_16 
REMARK    8  A    between atoms: S1_7  and  O3S_71 
REMARK    9  A    between atoms: S1_8  and  N_82 
REMARK   10  A    between atoms: S1_8  and  O1S_47 
REMARK   11  A    between atoms: S1_8  and  O2S_78 
REMARK   12  A    between atoms: S1_8  and  O3S_80 
REMARK   13  A    between atoms: C2_10  and  O2_76 
REMARK   14  A    between atoms: O4_13  and  C4_24 
REMARK   15  A    between atoms: O3_14  and  C3_41 
REMARK   16  A    between atoms: C4_15  and  O4_72 
REMARK   17  A    between atoms: C5_17  and  C6_40 
REMARK   18  A    between atoms: C6_19  and  C5_102 
REMARK   19  A    between atoms: C3_20  and  O3_104 
REMARK   20  A    between atoms: C2_22  and  N_60 
REMARK   21  A    between atoms: C1_27  and  O4_62 
REMARK   22  A    between atoms: O3_29  and  C3_74 
REMARK   23  A    between atoms: C4_30  and  O4_31 
REMARK   24  A    between atoms: O4_31  and  C1_105 
REMARK   25  A    between atoms: C5_32  and  C6_43 
REMARK   26  A    between atoms: C4_33  and  O4_62 
REMARK   27  A    between atoms: S_34  and  O2_70 
REMARK   28  A    between atoms: N_35  and  S1_99 
REMARK   29  A    between atoms: O3_36  and  C3_54 
REMARK   30  A    between atoms: C1_37  and  O1_42 
REMARK   31  A    between atoms: C4_39  and  O4_57 
REMARK   32  A    between atoms: C6_43  and  O6_53 
REMARK   33  A    between atoms: C6_44  and  C5_84 
REMARK   34  A    between atoms: C6_44  and  O6_61 
REMARK   35  A    between atoms: O2S_46  and  S1_99 
REMARK   36  A    between atoms: O6_48  and  C6_79 
REMARK   37  A    between atoms: O6_48  and  S2_83 
REMARK   38  A    between atoms: C4_49  and  O4_52 
REMARK   39  A    between atoms: C3_50  and  O3_96 
REMARK   40  A    between atoms: C3_51  and  O3_81 
REMARK   41  A    between atoms: O4_52  and  C1_65 
REMARK   42  A    between atoms: O6_53  and  S2_67 
REMARK   43  A    between atoms: C2_55  and  O2_70 
REMARK   44  A    between atoms: C1_58  and  O4_72 
REMARK   45  A    between atoms: S_64  and  O2_85 
REMARK   46  A    between atoms: O3S_66  and  S1_99 
REMARK   47  A    between atoms: O1S_69  and  S1_99 
REMARK   48  A    between atoms: O2_76  and  S_97 
REMARK   49  A    between atoms: C6_79  and  C5_95 
REMARK   50  A    between atoms: N_82  and  C2_100 
REMARK   51  A    between atoms: O2_85  and  C2_87 
ROOT
ATOM      1  C2  SGN d 303     -25.579  55.584   9.836  0.00  0.00     0.157 C 
ATOM      2  C1  SGN d 303     -27.032  55.610  10.259  0.00  0.00     0.282 C 
ATOM      3  C3  SGN d 303     -24.716  55.068  10.980  0.00  0.00     0.173 C 
ATOM      4  C4  SGN d 303     -24.935  55.898  12.250  0.00  0.00     0.186 C 
ATOM      5  C5  SGN d 303     -26.432  55.936  12.537  0.00  0.00     0.181 C 
ATOM      6  O5  SGN d 303     -27.155  56.416  11.410  0.00  0.00    -0.349 OA
ENDROOT
BRANCH   4   7
ATOM      7  O4  SGN d 303     -24.301  55.264  13.326  0.00  0.00    -0.348 OA
BRANCH   7   8
ATOM      8  C1  IDS d 304     -23.591  56.093  14.186  0.00  0.00     0.294 C 
ATOM      9  C2  IDS d 304     -23.255  55.332  15.469  0.00  0.00     0.231 C 
ATOM     10  C3  IDS d 304     -22.063  54.358  15.360  0.00  0.00     0.185 C 
ATOM     11  C4  IDS d 304     -20.953  54.943  14.511  0.00  0.00     0.195 C 
ATOM     12  C5  IDS d 304     -21.492  55.619  13.243  0.00  0.00     0.257 C 
ATOM     13  O5  IDS d 304     -22.414  56.595  13.577  0.00  0.00    -0.340 OA
BRANCH   9  14
ATOM     14  O2  IDS d 304     -22.942  56.260  16.469  0.00  0.00    -0.244 OA
BRANCH  14  15
ATOM     15  S   IDS d 304     -23.945  57.059  17.308  0.00  0.00     0.252 S 
ATOM     16  O3S IDS d 304     -23.566  58.397  17.109  0.00  0.00    -0.572 OA
ATOM     17  O2S IDS d 304     -23.804  56.642  18.665  0.00  0.00    -0.572 OA
ATOM     18  O1S IDS d 304     -25.225  56.763  16.777  0.00  0.00    -0.572 OA
ENDBRANCH  14  15
ENDBRANCH   9  14
BRANCH  10  19
ATOM     19  O3  IDS d 304     -22.491  53.154  14.766  0.00  0.00    -0.390 OA
ATOM     20  H   IDS d 304     -22.824  53.335  13.873  0.00  0.00     0.210 HD
ENDBRANCH  10  19
BRANCH  11  21
ATOM     21  O4  IDS d 304     -20.271  55.869  15.293  0.00  0.00    -0.348 OA
BRANCH  21  22
ATOM     22  C1  SGN d 305     -19.101  55.326  15.824  0.00  0.00     0.282 C 
ATOM     23  O5  SGN d 305     -18.158  55.052  14.809  0.00  0.00    -0.349 OA
ATOM     24  C5  SGN d 305     -17.689  56.188  14.173  0.00  0.00     0.181 C 
ATOM     25  C4  SGN d 305     -16.972  57.045  15.165  0.00  0.00     0.186 C 
ATOM     26  C3  SGN d 305     -18.041  57.512  16.120  0.00  0.00     0.173 C 
ATOM     27  C2  SGN d 305     -18.489  56.277  16.828  0.00  0.00     0.157 C 
BRANCH  24  28
ATOM     28  C6  SGN d 305     -16.862  55.732  13.025  0.00  0.00     0.227 C 
BRANCH  28  29
ATOM     29  O6  SGN d 305     -15.769  55.066  13.539  0.00  0.00    -0.254 OA
BRANCH  29  30
ATOM     30  S2  SGN d 305     -14.791  54.264  12.670  0.00  0.00     0.251 S 
ATOM     31  O6S SGN d 305     -15.587  53.795  11.541  0.00  0.00    -0.572 OA
ATOM     32  O4S SGN d 305     -13.769  55.218  12.318  0.00  0.00    -0.572 OA
ATOM     33  O5S SGN d 305     -14.312  53.176  13.490  0.00  0.00    -0.572 OA
ENDBRANCH  29  30
ENDBRANCH  28  29
ENDBRANCH  24  28
BRANCH  25  34
ATOM     34  O4  SGN d 305     -16.421  58.115  14.488  0.00  0.00    -0.348 OA
BRANCH  34  35
ATOM     35  C1  IDS d 306     -15.107  57.912  14.029  0.00  0.00     0.294 C 
ATOM     36  C2  IDS d 306     -14.906  58.758  12.791  0.00  0.00     0.231 C 
ATOM     37  C3  IDS d 306     -14.723  60.276  13.035  0.00  0.00     0.185 C 
ATOM     38  C4  IDS d 306     -14.098  60.625  14.435  0.00  0.00     0.189 C 
ATOM     39  C5  IDS d 306     -14.412  59.563  15.514  0.00  0.00     0.256 C 
ATOM     40  O5  IDS d 306     -14.167  58.277  15.012  0.00  0.00    -0.340 OA
BRANCH  36  41
ATOM     41  O2  IDS d 306     -13.771  58.332  12.117  0.00  0.00    -0.244 OA
BRANCH  41  42
ATOM     42  S   IDS d 306     -13.371  58.808  10.703  0.00  0.00     0.252 S 
ATOM     43  O2S IDS d 306     -12.485  59.941  10.889  0.00  0.00    -0.572 OA
ATOM     44  O1S IDS d 306     -14.637  59.182  10.094  0.00  0.00    -0.572 OA
ATOM     45  O3S IDS d 306     -12.722  57.676  10.075  0.00  0.00    -0.572 OA
ENDBRANCH  41  42
ENDBRANCH  36  41
BRANCH  37  46
ATOM     46  O3  IDS d 306     -16.000  60.882  12.887  0.00  0.00    -0.390 OA
ATOM     47  H   IDS d 306     -16.609  60.517  13.548  0.00  0.00     0.210 HD
ENDBRANCH  37  46
BRANCH  38  48
ATOM     48  O4  IDS d 306     -12.690  60.674  14.271  0.00  0.00    -0.390 OA
ATOM     49  H   IDS d 306     -12.369  59.808  13.974  0.00  0.00     0.210 HD
ENDBRANCH  38  48
BRANCH  39  50
ATOM     50  C6  IDS d 306     -13.720  59.734  16.868  0.00  0.00     0.206 C 
ATOM     51  O61 IDS d 306     -13.559  58.768  17.608  0.00  0.00    -0.646 OA
ATOM     52  O62 IDS d 306     -13.334  60.832  17.252  0.00  0.00    -0.646 OA
ENDBRANCH  39  50
ENDBRANCH  34  35
ENDBRANCH  25  34
BRANCH  26  53
ATOM     53  O3  SGN d 305     -17.512  58.400  17.046  0.00  0.00    -0.391 OA
ATOM     54  H   SGN d 305     -16.786  57.972  17.527  0.00  0.00     0.210 HD
ENDBRANCH  26  53
BRANCH  27  55
ATOM     55  N   SGN d 305     -19.427  56.541  17.879  0.00  0.00    -0.210 NA
ATOM     56  H   SGN d 305     -19.178  57.437  18.297  0.00  0.00     0.140 HD
BRANCH  55  57
ATOM     57  S1  SGN d 305     -19.511  55.449  19.073  0.00  0.00     0.156 S 
BRANCH  57  58
ATOM     58  O1S SGN d 305     -18.480  54.480  18.901  0.00  0.00    -0.296 OA
ATOM     59  H   SGN d 305     -17.615  54.913  18.970  0.00  0.00     0.231 HD
ENDBRANCH  57  58
BRANCH  57  60
ATOM     60  O2S SGN d 305     -19.314  56.216  20.232  0.00  0.00    -0.296 OA
ATOM     61  H   SGN d 305     -18.418  56.588  20.225  0.00  0.00     0.231 HD
ENDBRANCH  57  60
BRANCH  57  62
ATOM     62  O3S SGN d 305     -20.791  54.856  18.979  0.00  0.00    -0.296 OA
ATOM     63  H   SGN d 305     -20.851  54.345  18.157  0.00  0.00     0.231 HD
ENDBRANCH  57  62
ENDBRANCH  55  57
ENDBRANCH  27  55
ENDBRANCH  21  22
ENDBRANCH  11  21
BRANCH  12  64
ATOM     64  C6  IDS d 304     -20.438  56.205  12.318  0.00  0.00     0.206 C 
ATOM     65  O61 IDS d 304     -20.186  57.380  12.300  0.00  0.00    -0.646 OA
ATOM     66  O62 IDS d 304     -19.804  55.514  11.583  0.00  0.00    -0.646 OA
ENDBRANCH  12  64
ENDBRANCH   7   8
ENDBRANCH   4   7
BRANCH   3  67
ATOM     67  O3  SGN d 303     -23.357  55.165  10.611  0.00  0.00    -0.391 OA
ATOM     68  H   SGN d 303     -23.202  54.644   9.807  0.00  0.00     0.210 HD
ENDBRANCH   3  67
BRANCH   5  69
ATOM     69  C6  SGN d 303     -26.793  56.839  13.703  0.00  0.00     0.227 C 
BRANCH  69  70
ATOM     70  O6  SGN d 303     -26.166  58.058  13.448  0.00  0.00    -0.254 OA
BRANCH  70  71
ATOM     71  S2  SGN d 303     -26.643  59.464  13.842  0.00  0.00     0.251 S 
ATOM     72  O4S SGN d 303     -26.775  59.481  15.259  0.00  0.00    -0.572 OA
ATOM     73  O5S SGN d 303     -25.607  60.334  13.381  0.00  0.00    -0.572 OA
ATOM     74  O6S SGN d 303     -27.901  59.641  13.205  0.00  0.00    -0.572 OA
ENDBRANCH  70  71
ENDBRANCH  69  70
ENDBRANCH   5  69
BRANCH   1  75
ATOM     75  N   SGN d 303     -25.418  54.745   8.661  0.00  0.00    -0.210 NA
ATOM     76  H   SGN d 303     -25.899  53.867   8.858  0.00  0.00     0.140 HD
BRANCH  75  77
ATOM     77  S1  SGN d 303     -25.956  55.261   7.204  0.00  0.00     0.156 S 
BRANCH  77  78
ATOM     78  O2S SGN d 303     -24.939  56.125   6.682  0.00  0.00    -0.296 OA
ATOM     79  H   SGN d 303     -24.120  55.621   6.555  0.00  0.00     0.231 HD
ENDBRANCH  77  78
BRANCH  77  80
ATOM     80  O3S SGN d 303     -26.123  54.060   6.441  0.00  0.00    -0.296 OA
ATOM     81  H   SGN d 303     -25.264  53.623   6.333  0.00  0.00     0.231 HD
ENDBRANCH  77  80
BRANCH  77  82
ATOM     82  O1S SGN d 303     -27.188  55.969   7.408  0.00  0.00    -0.296 OA
ATOM     83  H   SGN d 303     -27.018  56.770   7.928  0.00  0.00     0.231 HD
ENDBRANCH  77  82
ENDBRANCH  75  77
ENDBRANCH   1  75
BRANCH   2  84
ATOM     84  O4  IDS d 302     -27.507  54.294  10.460  0.00  0.00    -0.348 OA
BRANCH  84  85
ATOM     85  C4  IDS d 302     -28.906  54.140  10.376  0.00  0.00     0.195 C 
ATOM     86  C3  IDS d 302     -29.276  53.144   9.294  0.00  0.00     0.185 C 
ATOM     87  C2  IDS d 302     -28.860  51.716   9.644  0.00  0.00     0.231 C 
ATOM     88  C1  IDS d 302     -29.181  51.323  11.055  0.00  0.00     0.294 C 
ATOM     89  O5  IDS d 302     -28.803  52.357  11.947  0.00  0.00    -0.340 OA
ATOM     90  C5  IDS d 302     -29.418  53.605  11.676  0.00  0.00     0.257 C 
BRANCH  86  91
ATOM     91  O3  IDS d 302     -30.672  53.167   9.153  0.00  0.00    -0.390 OA
ATOM     92  H   IDS d 302     -30.960  54.066   8.930  0.00  0.00     0.210 HD
ENDBRANCH  86  91
BRANCH  87  93
ATOM     93  O2  IDS d 302     -27.506  51.637   9.476  0.00  0.00    -0.244 OA
BRANCH  93  94
ATOM     94  S   IDS d 302     -26.743  50.669   8.569  0.00  0.00     0.252 S 
ATOM     95  O3S IDS d 302     -26.948  49.374   9.110  0.00  0.00    -0.572 OA
ATOM     96  O1S IDS d 302     -27.336  50.827   7.283  0.00  0.00    -0.572 OA
ATOM     97  O2S IDS d 302     -25.380  51.074   8.630  0.00  0.00    -0.572 OA
ENDBRANCH  93  94
ENDBRANCH  87  93
BRANCH  88  98
ATOM     98  O4  SGN d 301     -30.536  51.013  11.159  0.00  0.00    -0.348 OA
BRANCH  98  99
ATOM     99  C4  SGN d 301     -30.887  50.280  12.311  0.00  0.00     0.186 C 
ATOM    100  C3  SGN d 301     -31.882  51.094  13.181  0.00  0.00     0.173 C 
ATOM    101  C2  SGN d 301     -32.239  50.227  14.390  0.00  0.00     0.157 C 
ATOM    102  C1  SGN d 301     -32.958  48.997  13.859  0.00  0.00     0.278 C 
ATOM    103  O5  SGN d 301     -32.094  48.252  13.019  0.00  0.00    -0.350 OA
ATOM    104  C5  SGN d 301     -31.628  48.981  11.881  0.00  0.00     0.181 C 
BRANCH 100 105
ATOM    105  O3  SGN d 301     -31.267  52.276  13.620  0.00  0.00    -0.391 OA
ATOM    106  H   SGN d 301     -31.040  52.826  12.854  0.00  0.00     0.210 HD
ENDBRANCH 100 105
BRANCH 101 107
ATOM    107  N   SGN d 301     -33.066  50.920  15.389  0.00  0.00    -0.210 NA
ATOM    108  H   SGN d 301     -32.904  51.921  15.275  0.00  0.00     0.140 HD
BRANCH 107 109
ATOM    109  S1  SGN d 301     -32.819  50.559  16.988  0.00  0.00     0.156 S 
BRANCH 109 110
ATOM    110  O1S SGN d 301     -31.737  49.599  17.059  0.00  0.00    -0.296 OA
ATOM    111  H   SGN d 301     -30.919  50.009  16.736  0.00  0.00     0.231 HD
ENDBRANCH 109 110
BRANCH 109 112
ATOM    112  O2S SGN d 301     -32.484  51.801  17.640  0.00  0.00    -0.296 OA
ATOM    113  H   SGN d 301     -31.645  52.136  17.286  0.00  0.00     0.231 HD
ENDBRANCH 109 112
BRANCH 109 114
ATOM    114  O3S SGN d 301     -34.059  49.991  17.460  0.00  0.00    -0.296 OA
ATOM    115  H   SGN d 301     -34.234  49.161  16.990  0.00  0.00     0.231 HD
ENDBRANCH 109 114
ENDBRANCH 107 109
ENDBRANCH 101 107
BRANCH 102 116
ATOM    116  O1  SGN d 301     -34.132  49.414  13.121  0.00  0.00    -0.369 OA
ATOM    117  H   SGN d 301     -33.864  49.977  12.378  0.00  0.00     0.212 HD
ENDBRANCH 102 116
BRANCH 104 118
ATOM    118  C6  SGN d 301     -30.811  47.992  11.052  0.00  0.00     0.227 C 
BRANCH 118 119
ATOM    119  O6  SGN d 301     -29.745  47.503  11.829  0.00  0.00    -0.254 OA
BRANCH 119 120
ATOM    120  S2  SGN d 301     -28.662  46.467  11.349  0.00  0.00     0.251 S 
ATOM    121  O6S SGN d 301     -29.297  45.170  11.447  0.00  0.00    -0.572 OA
ATOM    122  O5S SGN d 301     -27.527  46.620  12.235  0.00  0.00    -0.572 OA
ATOM    123  O4S SGN d 301     -28.348  46.829   9.981  0.00  0.00    -0.572 OA
ENDBRANCH 119 120
ENDBRANCH 118 119
ENDBRANCH 104 118
ENDBRANCH  98  99
ENDBRANCH  88  98
BRANCH  90 124
ATOM    124  C6  IDS d 302     -29.284  54.585  12.839  0.00  0.00     0.206 C 
ATOM    125  O61 IDS d 302     -28.700  54.264  13.873  0.00  0.00    -0.646 OA
ATOM    126  O62 IDS d 302     -29.767  55.722  12.756  0.00  0.00    -0.646 OA
ENDBRANCH  90 124
ENDBRANCH  84  85
ENDBRANCH   2  84
TORSDOF 51
