REMARK WARNING: 32 MAX_TORS EXCEEDED!!!
REMARK  48 active torsions:
REMARK  status: ('A' for Active; 'I' for Inactive)
REMARK    1  A    between atoms: C53_1  and  C51_7 
REMARK    2  A    between atoms: C53_1  and  O54_15 
REMARK    3  A    between atoms: S35_2  and  O34_89 
REMARK    4  A    between atoms: S35_2  and  O38_5 
REMARK    5  A    between atoms: C50_4  and  O4G_30 
REMARK    6  A    between atoms: O27_6  and  C26_59 
REMARK    7  A    between atoms: O3M_8  and  C3L_58 
REMARK    8  A    between atoms: O3M_8  and  C40_70 
REMARK    9  A    between atoms: C30_10  and  O2D_35 
REMARK   10  A    between atoms: O3G_12  and  C3F_51 
REMARK   11  A    between atoms: O3G_12  and  S3H_73 
REMARK   12  A    between atoms: S1G_13  and  O1F_54 
REMARK   13  A    between atoms: S1G_13  and  O1J_84 
REMARK   14  A    between atoms: O54_15  and  S55_44 
REMARK   15  A    between atoms: C23_16  and  C21_52 
REMARK   16  A    between atoms: C23_16  and  O25_34 
REMARK   17  A    between atoms: O1C_19  and  C1B_43 
REMARK   18  A    between atoms: C43_20  and  C41_41 
REMARK   19  A    between atoms: C43_20  and  O45_50 
REMARK   20  A    between atoms: C1E_24  and  O1F_54 
REMARK   21  A    between atoms: O5M_27  and  C5L_82 
REMARK   22  A    between atoms: O4G_30  and  C4F_56 
REMARK   23  A    between atoms: C46_32  and  O47_95 
REMARK   24  A    between atoms: O3K_33  and  S3H_73 
REMARK   25  A    between atoms: O2D_35  and  C2C_88 
REMARK   26  A    between atoms: S5H_38  and  O5G_78 
REMARK   27  A    between atoms: S5H_38  and  O5K_91 
REMARK   28  A    between atoms: O16_39  and  C15_57 
REMARK   29  A    between atoms: O16_39  and  S17_65 
REMARK   30  A    between atoms: C33_42  and  C31_66 
REMARK   31  A    between atoms: C33_42  and  O34_89 
REMARK   32  A    between atoms: S55_44  and  O58_93 
REMARK   33  A    between atoms: C20_47  and  O1L_87 
REMARK   34  A    between atoms: C1K_48  and  O1L_87 
REMARK   35  A    between atoms: C29_49  and  O2A_62 
REMARK   36  A    between atoms: O4A_53  and  C49_83 
REMARK   37  A    between atoms: O4A_53  and  S4B_77 
REMARK   38  A    between atoms: C59_55  and  O5A_68 
REMARK   39  A    between atoms: C15_57  and  C13_79 
REMARK   40  A    between atoms: O3A_63  and  C39_97 
REMARK   41  A    between atoms: O3A_63  and  S3B_69 
REMARK   42  A    between atoms: O10_64  and  C12_96 
REMARK   43  A    between atoms: S17_65  and  O1A_99 
REMARK   44  A    between atoms: O5A_68  and  S5B_81 
REMARK   45  A    between atoms: S3B_69  and  O3E_86 
REMARK   46  A    between atoms: O5C_72  and  S5B_81 
REMARK   47  A    between atoms: S4B_77  and  O4C_90 
REMARK   48  A    between atoms: O5G_78  and  C5F_98 
ROOT
ATOM      1  C30 NTP d 433      25.653   9.489  -6.938  0.00  0.00     0.189 C 
ATOM      2  C3F NTP d 433      26.080  10.953  -4.947  0.00  0.00     0.232 C 
ATOM      3  C3L NTP d 433      25.785   9.749  -4.051  0.00  0.00     0.294 C 
ATOM      4  C31 NTP d 433      25.577   8.326  -5.959  0.00  0.00     0.181 C 
ATOM      5  O32 NTP d 433      26.254   8.564  -4.713  0.00  0.00    -0.348 OA
ATOM      6  C39 NTP d 433      25.287  10.809  -6.250  0.00  0.00     0.211 C 
ENDROOT
BRANCH   3   7
ATOM      7  O3M NTP d 433      24.371   9.701  -3.808  0.00  0.00    -0.347 OA
BRANCH   7   8
ATOM      8  C40 NTP d 433      23.949   8.696  -2.871  0.00  0.00     0.196 C 
ATOM      9  C46 NTP d 433      24.361   9.099  -1.462  0.00  0.00     0.188 C 
ATOM     10  C49 NTP d 433      23.245   8.796  -0.451  0.00  0.00     0.230 C 
ATOM     11  C4F NTP d 433      21.967   9.542  -0.839  0.00  0.00     0.294 C 
ATOM     12  O42 NTP d 433      21.907   9.765  -2.256  0.00  0.00    -0.340 OA
ATOM     13  C41 NTP d 433      22.433   8.631  -2.960  0.00  0.00     0.253 C 
BRANCH   9  14
ATOM     14  O47 NTP d 433      25.528   8.335  -1.126  0.00  0.00    -0.385 OA
ATOM     15  C48 NTP d 433      26.283   8.990  -0.102  0.00  0.00     0.202 C 
ENDBRANCH   9  14
BRANCH  10  16
ATOM     16  O4A NTP d 433      23.652   9.273   0.837  0.00  0.00    -0.251 OA
BRANCH  16  17
ATOM     17  S4B NTP d 433      23.543   8.301   1.883  0.00  0.00     0.241 S 
ATOM     18  O4D NTP d 433      24.045   8.912   3.158  0.00  0.00    -0.579 OA
ATOM     19  O4E NTP d 433      24.374   7.097   1.549  0.00  0.00    -0.579 OA
BRANCH  17  20
ATOM     20  O4C NTP d 433      22.113   7.885   2.063  0.00  0.00    -0.274 OA
ATOM     21  H   NTP d 433      21.575   8.663   2.279  0.00  0.00     0.234 HD
ENDBRANCH  17  20
ENDBRANCH  16  17
ENDBRANCH  10  16
BRANCH  11  22
ATOM     22  O4G NTP d 433      20.816   8.798  -0.406  0.00  0.00    -0.348 OA
BRANCH  22  23
ATOM     23  C50 NTP d 433      19.610   9.557  -0.575  0.00  0.00     0.189 C 
ATOM     24  C51 NTP d 433      19.139  10.095   0.769  0.00  0.00     0.181 C 
ATOM     25  O52 NTP d 433      17.901  10.814   0.639  0.00  0.00    -0.348 OA
ATOM     26  C5L NTP d 433      16.845   9.990   0.123  0.00  0.00     0.292 C 
ATOM     27  C5F NTP d 433      17.218   9.501  -1.276  0.00  0.00     0.232 C 
ATOM     28  C59 NTP d 433      18.512   8.686  -1.200  0.00  0.00     0.211 C 
BRANCH  24  29
ATOM     29  C53 NTP d 433      20.172  11.044   1.382  0.00  0.00     0.226 C 
BRANCH  29  30
ATOM     30  O54 NTP d 433      20.307  12.238   0.606  0.00  0.00    -0.261 OA
BRANCH  30  31
ATOM     31  S55 NTP d 433      21.112  13.328   1.069  0.00  0.00     0.240 S 
ATOM     32  O57 NTP d 433      20.644  13.765   2.425  0.00  0.00    -0.579 OA
ATOM     33  O56 NTP d 433      22.545  12.895   1.156  0.00  0.00    -0.579 OA
BRANCH  31  34
ATOM     34  O58 NTP d 433      20.996  14.474   0.109  0.00  0.00    -0.274 OA
ATOM     35  H   NTP d 433      20.069  14.755   0.052  0.00  0.00     0.234 HD
ENDBRANCH  31  34
ENDBRANCH  30  31
ENDBRANCH  29  30
ENDBRANCH  24  29
BRANCH  26  36
ATOM     36  O5M NTP d 433      16.641   8.861   0.986  0.00  0.00    -0.363 OA
ATOM     37  C5N NTP d 433      16.216   9.310   2.276  0.00  0.00     0.204 C 
ENDBRANCH  26  36
BRANCH  27  38
ATOM     38  O5G NTP d 433      16.151   8.697  -1.790  0.00  0.00    -0.251 OA
BRANCH  38  39
ATOM     39  S5H NTP d 433      15.324   9.441  -2.694  0.00  0.00     0.241 S 
ATOM     40  O5J NTP d 433      14.944  10.754  -2.080  0.00  0.00    -0.579 OA
ATOM     41  O5I NTP d 433      16.077   9.685  -3.969  0.00  0.00    -0.579 OA
BRANCH  39  42
ATOM     42  O5K NTP d 433      14.087   8.649  -2.993  0.00  0.00    -0.274 OA
ATOM     43  H   NTP d 433      13.524   9.148  -3.605  0.00  0.00     0.234 HD
ENDBRANCH  39  42
ENDBRANCH  38  39
ENDBRANCH  27  38
BRANCH  28  44
ATOM     44  O5A NTP d 433      18.903   8.285  -2.515  0.00  0.00    -0.253 OA
BRANCH  44  45
ATOM     45  S5B NTP d 433      19.043   6.866  -2.654  0.00  0.00     0.240 S 
ATOM     46  O5D NTP d 433      19.161   6.529  -4.111  0.00  0.00    -0.579 OA
ATOM     47  O5E NTP d 433      17.845   6.163  -2.084  0.00  0.00    -0.579 OA
BRANCH  45  48
ATOM     48  O5C NTP d 433      20.279   6.408  -1.941  0.00  0.00    -0.274 OA
ATOM     49  H   NTP d 433      20.370   5.447  -2.037  0.00  0.00     0.234 HD
ENDBRANCH  45  48
ENDBRANCH  44  45
ENDBRANCH  28  44
ENDBRANCH  22  23
ENDBRANCH  11  22
BRANCH  13  50
ATOM     50  C43 NTP d 433      22.034   8.743  -4.434  0.00  0.00     0.172 C 
ATOM     51  O44 NTP d 433      22.276   7.780  -5.189  0.00  0.00    -0.648 OA
BRANCH  50  52
ATOM     52  O45 NTP d 433      21.488   9.805  -4.811  0.00  0.00    -0.774 OA
ATOM     53  H   NTP d 433      21.331  10.495  -4.197  0.00  0.00     0.167 HD
ENDBRANCH  50  52
ENDBRANCH  13  50
ENDBRANCH   7   8
ENDBRANCH   3   7
BRANCH   2  54
ATOM     54  O3G NTP d 433      25.694  12.155  -4.271  0.00  0.00    -0.251 OA
BRANCH  54  55
ATOM     55  S3H NTP d 433      26.650  12.525  -3.273  0.00  0.00     0.241 S 
ATOM     56  O3I NTP d 433      26.559  14.000  -3.017  0.00  0.00    -0.579 OA
ATOM     57  O3J NTP d 433      28.037  12.192  -3.740  0.00  0.00    -0.579 OA
BRANCH  55  58
ATOM     58  O3K NTP d 433      26.361  11.787  -2.000  0.00  0.00    -0.274 OA
ATOM     59  H   NTP d 433      25.465  12.002  -1.698  0.00  0.00     0.234 HD
ENDBRANCH  55  58
ENDBRANCH  54  55
ENDBRANCH   2  54
BRANCH   6  60
ATOM     60  O3A NTP d 433      25.614  11.898  -7.120  0.00  0.00    -0.253 OA
BRANCH  60  61
ATOM     61  S3B NTP d 433      24.496  12.742  -7.422  0.00  0.00     0.240 S 
ATOM     62  O3C NTP d 433      23.903  13.281  -6.153  0.00  0.00    -0.579 OA
ATOM     63  O3D NTP d 433      24.977  13.881  -8.271  0.00  0.00    -0.579 OA
BRANCH  61  64
ATOM     64  O3E NTP d 433      23.448  11.967  -8.161  0.00  0.00    -0.274 OA
ATOM     65  H   NTP d 433      23.140  11.232  -7.609  0.00  0.00     0.234 HD
ENDBRANCH  61  64
ENDBRANCH  60  61
ENDBRANCH   6  60
BRANCH   4  66
ATOM     66  C33 NTP d 433      26.191   7.083  -6.609  0.00  0.00     0.226 C 
BRANCH  66  67
ATOM     67  O34 NTP d 433      27.576   7.297  -6.896  0.00  0.00    -0.261 OA
BRANCH  67  68
ATOM     68  S35 NTP d 433      28.346   6.283  -7.553  0.00  0.00     0.240 S 
ATOM     69  O36 NTP d 433      27.896   6.157  -8.978  0.00  0.00    -0.579 OA
ATOM     70  O37 NTP d 433      28.140   4.977  -6.846  0.00  0.00    -0.579 OA
BRANCH  68  71
ATOM     71  O38 NTP d 433      29.798   6.658  -7.521  0.00  0.00    -0.274 OA
ATOM     72  H   NTP d 433      29.924   7.503  -7.980  0.00  0.00     0.234 HD
ENDBRANCH  68  71
ENDBRANCH  67  68
ENDBRANCH  66  67
ENDBRANCH   4  66
BRANCH   1  73
ATOM     73  O2D NTP d 433      24.744   9.235  -8.023  0.00  0.00    -0.348 OA
BRANCH  73  74
ATOM     74  C2C NTP d 433      25.400   8.830  -9.236  0.00  0.00     0.293 C 
ATOM     75  C29 NTP d 433      24.417   8.048 -10.096  0.00  0.00     0.207 C 
ATOM     76  C26 NTP d 433      25.083   7.673 -11.411  0.00  0.00     0.186 C 
ATOM     77  C20 NTP d 433      25.565   8.931 -12.116  0.00  0.00     0.195 C 
ATOM     78  C21 NTP d 433      26.477   9.702 -11.175  0.00  0.00     0.253 C 
ATOM     79  O22 NTP d 433      25.797  10.012  -9.948  0.00  0.00    -0.340 OA
BRANCH  75  80
ATOM     80  O2A NTP d 433      24.034   6.835  -9.428  0.00  0.00    -0.383 OA
ATOM     81  C2B NTP d 433      23.053   7.092  -8.420  0.00  0.00     0.202 C 
ENDBRANCH  75  80
BRANCH  76  82
ATOM     82  O27 NTP d 433      24.124   7.022 -12.257  0.00  0.00    -0.385 OA
ATOM     83  C28 NTP d 433      23.946   5.658 -11.867  0.00  0.00     0.202 C 
ENDBRANCH  76  82
BRANCH  77  84
ATOM     84  O1L NTP d 433      26.316   8.588 -13.291  0.00  0.00    -0.347 OA
BRANCH  84  85
ATOM     85  C1K NTP d 433      25.470   8.271 -14.409  0.00  0.00     0.293 C 
ATOM     86  O14 NTP d 433      25.103   9.473 -15.107  0.00  0.00    -0.348 OA
ATOM     87  C13 NTP d 433      26.241  10.237 -15.543  0.00  0.00     0.181 C 
ATOM     88  C12 NTP d 433      27.159   9.415 -16.437  0.00  0.00     0.183 C 
ATOM     89  C1B NTP d 433      27.544   8.109 -15.762  0.00  0.00     0.187 C 
ATOM     90  C1E NTP d 433      26.253   7.383 -15.377  0.00  0.00     0.228 C 
BRANCH  87  91
ATOM     91  C15 NTP d 433      25.751  11.425 -16.375  0.00  0.00     0.226 C 
BRANCH  91  92
ATOM     92  O16 NTP d 433      24.888  12.297 -15.639  0.00  0.00    -0.261 OA
BRANCH  92  93
ATOM     93  S17 NTP d 433      24.146  13.313 -16.321  0.00  0.00     0.240 S 
ATOM     94  O19 NTP d 433      25.004  13.964 -17.364  0.00  0.00    -0.579 OA
ATOM     95  O18 NTP d 433      22.945  12.692 -16.970  0.00  0.00    -0.579 OA
BRANCH  93  96
ATOM     96  O1A NTP d 433      23.702  14.348 -15.329  0.00  0.00    -0.274 OA
ATOM     97  H   NTP d 433      24.480  14.749 -14.910  0.00  0.00     0.234 HD
ENDBRANCH  93  96
ENDBRANCH  92  93
ENDBRANCH  91  92
ENDBRANCH  87  91
BRANCH  88  98
ATOM     98  O10 NTP d 433      28.368  10.153 -16.667  0.00  0.00    -0.385 OA
ATOM     99  C11 NTP d 433      28.284  10.880 -17.896  0.00  0.00     0.202 C 
ENDBRANCH  88  98
BRANCH  89 100
ATOM    100  O1C NTP d 433      28.312   7.320 -16.682  0.00  0.00    -0.385 OA
ATOM    101  C1D NTP d 433      29.025   6.297 -15.980  0.00  0.00     0.202 C 
ENDBRANCH  89 100
BRANCH  90 102
ATOM    102  O1F NTP d 433      26.562   6.131 -14.759  0.00  0.00    -0.261 OA
BRANCH 102 103
ATOM    103  S1G NTP d 433      25.957   5.050 -15.477  0.00  0.00     0.304 S 
ATOM    104  O1I NTP d 433      24.487   5.308 -15.642  0.00  0.00    -0.197 OA
BRANCH 103 105
ATOM    105  O1J NTP d 433      26.151   3.774 -14.714  0.00  0.00    -0.284 OA
ATOM    106  H   NTP d 433      27.100   3.603 -14.605  0.00  0.00     0.232 HD
ENDBRANCH 103 105
ENDBRANCH 102 103
ENDBRANCH  90 102
ENDBRANCH  84  85
ENDBRANCH  77  84
BRANCH  78 107
ATOM    107  C23 NTP d 433      26.888  11.007 -11.860  0.00  0.00     0.172 C 
ATOM    108  O24 NTP d 433      25.992  11.860 -12.064  0.00  0.00    -0.648 OA
BRANCH 107 109
ATOM    109  O25 NTP d 433      28.083  11.157 -12.180  0.00  0.00    -0.774 OA
ATOM    110  H   NTP d 433      28.705  10.480 -11.999  0.00  0.00     0.167 HD
ENDBRANCH 107 109
ENDBRANCH  78 107
ENDBRANCH  73  74
ENDBRANCH   1  73
TORSDOF 48
