REMARK WARNING: 32 MAX_TORS EXCEEDED!!!
REMARK  39 active torsions:
REMARK  status: ('A' for Active; 'I' for Inactive)
REMARK    1  A    between atoms: C1_1  and  O4_87 
REMARK    2  A    between atoms: O3_4  and  C3_52 
REMARK    3  A    between atoms: C3_5  and  O3_75 
REMARK    4  A    between atoms: C6_6  and  C5_12 
REMARK    5  A    between atoms: C2_7  and  O2_33 
REMARK    6  A    between atoms: O1_8  and  C1_21 
REMARK       I    between atoms: C7_9  and  N2_16 
REMARK    7  A    between atoms: C5_10  and  C6_51 
REMARK    8  A    between atoms: C2_13  and  N2_81 
REMARK    9  A    between atoms: C6_15  and  C5_59 
REMARK   10  A    between atoms: C6_15  and  O6_53 
REMARK   11  A    between atoms: N2_16  and  C2_66 
REMARK   12  A    between atoms: C3_17  and  O3_88 
REMARK   13  A    between atoms: C2_18  and  N2_24 
REMARK   14  A    between atoms: C4_19  and  O4_70 
REMARK   15  A    between atoms: C4_22  and  O4_84 
REMARK       I    between atoms: C7_23  and  N2_24 
REMARK   16  A    between atoms: O4_25  and  C4_86 
REMARK   17  A    between atoms: O4_25  and  C1_32 
REMARK   18  A    between atoms: C6_27  and  C5_38 
REMARK       I    between atoms: C7_29  and  N2_81 
REMARK   19  A    between atoms: O6_31  and  C6_51 
REMARK   20  A    between atoms: O4_34  and  C4_67 
REMARK   21  A    between atoms: C1_35  and  O3_74 
REMARK   22  A    between atoms: C6_36  and  C5_71 
REMARK   23  A    between atoms: N2_37  and  C2_76 
REMARK       I    between atoms: N2_37  and  C7_39 
REMARK   24  A    between atoms: C5_40  and  C6_63 
REMARK   25  A    between atoms: O6_42  and  C6_63 
REMARK   26  A    between atoms: C3_45  and  O3_56 
REMARK   27  A    between atoms: C5_46  and  C6_82 
REMARK   28  A    between atoms: C1_48  and  O3_75 
REMARK   29  A    between atoms: C1_49  and  O3_88 
REMARK   30  A    between atoms: O6_50  and  C6_82 
REMARK   31  A    between atoms: C3_54  and  O3_74 
REMARK   32  A    between atoms: O2_61  and  C2_68 
REMARK   33  A    between atoms: O4_64  and  C4_72 
REMARK   34  A    between atoms: C1_65  and  O4_70 
REMARK   35  A    between atoms: C3_69  and  O3_93 
REMARK   36  A    between atoms: C2_77  and  O2_85 
REMARK   37  A    between atoms: O4_78  and  C4_80 
REMARK   38  A    between atoms: O3_83  and  C3_92 
REMARK   39  A    between atoms: O4_87  and  C4_89 
ROOT
ATOM      1  C4  BDP d1178      11.000 -11.814   6.022  0.00  0.00     0.195 C 
ATOM      2  C1  BDP d1178      10.241 -11.783   8.779  0.00  0.00     0.292 C 
ATOM      3  C2  BDP d1178      10.404 -10.474   8.014  0.00  0.00     0.204 C 
ATOM      4  C3  BDP d1178      10.101 -10.712   6.556  0.00  0.00     0.183 C 
ATOM      5  C5  BDP d1178      11.031 -13.035   6.935  0.00  0.00     0.257 C 
ATOM      6  O5  BDP d1178      11.197 -12.708   8.310  0.00  0.00    -0.340 OA
ENDROOT
BRANCH   1   7
ATOM      7  O4  BDP d1178      10.438 -12.211   4.804  0.00  0.00    -0.348 OA
BRANCH   7   8
ATOM      8  C1  NAG d1179      11.353 -12.243   3.696  0.00  0.00     0.286 C 
ATOM      9  C2  NAG d1179      10.668 -13.119   2.655  0.00  0.00     0.171 C 
ATOM     10  C3  NAG d1179      11.362 -13.125   1.295  0.00  0.00     0.183 C 
ATOM     11  C4  NAG d1179      11.707 -11.701   0.872  0.00  0.00     0.180 C 
ATOM     12  C5  NAG d1179      12.434 -10.983   2.011  0.00  0.00     0.179 C 
ATOM     13  O5  NAG d1179      11.602 -10.962   3.158  0.00  0.00    -0.349 OA
BRANCH   9  14
ATOM     14  N2  NAG d1179      10.489 -14.471   3.160  0.00  0.00    -0.349 N 
ATOM     15  C7  NAG d1179       9.268 -14.957   3.376  0.00  0.00     0.214 C 
ATOM     16  C8  NAG d1179       9.102 -15.931   4.502  0.00  0.00     0.117 C 
ATOM     17  O7  NAG d1179       8.292 -14.642   2.698  0.00  0.00    -0.274 OA
ATOM     18  H   NAG d1179      11.277 -15.032   3.344  0.00  0.00     0.163 HD
ENDBRANCH   9  14
BRANCH  10  19
ATOM     19  O3  NAG d1179      10.476 -13.689   0.346  0.00  0.00    -0.348 OA
BRANCH  19  20
ATOM     20  C1  BDP d1180      11.046 -14.817  -0.334  0.00  0.00     0.292 C 
ATOM     21  C2  BDP d1180       9.919 -15.714  -0.846  0.00  0.00     0.204 C 
ATOM     22  C3  BDP d1180      10.359 -16.754  -1.885  0.00  0.00     0.183 C 
ATOM     23  C4  BDP d1180      11.496 -16.279  -2.795  0.00  0.00     0.195 C 
ATOM     24  C5  BDP d1180      12.529 -15.474  -2.010  0.00  0.00     0.257 C 
ATOM     25  O5  BDP d1180      11.867 -14.387  -1.397  0.00  0.00    -0.340 OA
BRANCH  21  26
ATOM     26  O2  BDP d1180       9.383 -16.403   0.264  0.00  0.00    -0.388 OA
ATOM     27  H   BDP d1180      10.070 -16.960   0.661  0.00  0.00     0.210 HD
ENDBRANCH  21  26
BRANCH  22  28
ATOM     28  O3  BDP d1180       9.241 -17.097  -2.678  0.00  0.00    -0.390 OA
ATOM     29  H   BDP d1180       8.927 -16.311  -3.151  0.00  0.00     0.210 HD
ENDBRANCH  22  28
BRANCH  23  30
ATOM     30  O4  BDP d1180      12.148 -17.402  -3.345  0.00  0.00    -0.348 OA
BRANCH  30  31
ATOM     31  C1  NAG d1181      11.787 -17.632  -4.717  0.00  0.00     0.286 C 
ATOM     32  C2  NAG d1181      12.817 -18.587  -5.317  0.00  0.00     0.170 C 
ATOM     33  C3  NAG d1181      12.489 -18.923  -6.774  0.00  0.00     0.177 C 
ATOM     34  C4  NAG d1181      11.020 -19.333  -6.917  0.00  0.00     0.180 C 
ATOM     35  C5  NAG d1181      10.071 -18.391  -6.162  0.00  0.00     0.179 C 
ATOM     36  O5  NAG d1181      10.500 -18.191  -4.826  0.00  0.00    -0.349 OA
BRANCH  32  37
ATOM     37  N2  NAG d1181      14.147 -18.008  -5.197  0.00  0.00    -0.349 N 
ATOM     38  C7  NAG d1181      15.146 -18.667  -4.610  0.00  0.00     0.214 C 
ATOM     39  C8  NAG d1181      15.019 -18.924  -3.133  0.00  0.00     0.117 C 
ATOM     40  O7  NAG d1181      16.133 -19.057  -5.239  0.00  0.00    -0.274 OA
ATOM     41  H   NAG d1181      14.313 -17.107  -5.558  0.00  0.00     0.163 HD
ENDBRANCH  32  37
BRANCH  33  42
ATOM     42  O3  NAG d1181      13.340 -19.961  -7.238  0.00  0.00    -0.391 OA
ATOM     43  H   NAG d1181      14.266 -19.688  -7.141  0.00  0.00     0.210 HD
ENDBRANCH  33  42
BRANCH  34  44
ATOM     44  O4  NAG d1181      10.675 -19.354  -8.284  0.00  0.00    -0.390 OA
ATOM     45  H   NAG d1181       9.745 -19.613  -8.379  0.00  0.00     0.210 HD
ENDBRANCH  34  44
BRANCH  35  46
ATOM     46  C6  NAG d1181       8.647 -18.951  -6.125  0.00  0.00     0.198 C 
BRANCH  46  47
ATOM     47  O6  NAG d1181       7.727 -17.917  -5.842  0.00  0.00    -0.398 OA
ATOM     48  H   NAG d1181       7.935 -17.527  -4.979  0.00  0.00     0.209 HD
ENDBRANCH  46  47
ENDBRANCH  35  46
ENDBRANCH  30  31
ENDBRANCH  23  30
BRANCH  24  49
ATOM     49  C6  BDP d1180      13.699 -14.978  -2.862  0.00  0.00     0.206 C 
ATOM     50  O6A BDP d1180      14.823 -15.497  -2.658  0.00  0.00    -0.646 OA
ATOM     51  O6B BDP d1180      13.480 -14.074  -3.705  0.00  0.00    -0.646 OA
ENDBRANCH  24  49
ENDBRANCH  19  20
ENDBRANCH  10  19
BRANCH  11  52
ATOM     52  O4  NAG d1179      12.495 -11.728  -0.300  0.00  0.00    -0.390 OA
ATOM     53  H   NAG d1179      12.712 -10.820  -0.565  0.00  0.00     0.210 HD
ENDBRANCH  11  52
BRANCH  12  54
ATOM     54  C6  NAG d1179      12.819  -9.549   1.646  0.00  0.00     0.198 C 
BRANCH  54  55
ATOM     55  O6  NAG d1179      11.675  -8.800   1.278  0.00  0.00    -0.398 OA
ATOM     56  H   NAG d1179      11.940  -7.895   1.051  0.00  0.00     0.209 HD
ENDBRANCH  54  55
ENDBRANCH  12  54
ENDBRANCH   7   8
ENDBRANCH   1   7
BRANCH   4  57
ATOM     57  O3  BDP d1178      10.281  -9.530   5.809  0.00  0.00    -0.390 OA
ATOM     58  H   BDP d1178      11.204  -9.239   5.881  0.00  0.00     0.210 HD
ENDBRANCH   4  57
BRANCH   5  59
ATOM     59  C6  BDP d1178      12.117 -13.987   6.430  0.00  0.00     0.206 C 
ATOM     60  O6B BDP d1178      11.759 -14.824   5.567  0.00  0.00    -0.646 OA
ATOM     61  O6A BDP d1178      13.288 -13.880   6.871  0.00  0.00    -0.646 OA
ENDBRANCH   5  59
BRANCH   3  62
ATOM     62  O2  BDP d1178       9.522  -9.498   8.508  0.00  0.00    -0.388 OA
ATOM     63  H   BDP d1178       9.709  -9.338   9.446  0.00  0.00     0.210 HD
ENDBRANCH   3  62
BRANCH   2  64
ATOM     64  O3  NAG d1177      10.371 -11.477  10.178  0.00  0.00    -0.348 OA
BRANCH  64  65
ATOM     65  C3  NAG d1177       9.988 -12.536  11.025  0.00  0.00     0.183 C 
ATOM     66  C2  NAG d1177       8.794 -12.115  11.871  0.00  0.00     0.171 C 
ATOM     67  C1  NAG d1177       8.526 -13.158  12.957  0.00  0.00     0.286 C 
ATOM     68  O5  NAG d1177       9.695 -13.443  13.708  0.00  0.00    -0.349 OA
ATOM     69  C5  NAG d1177      10.765 -13.946  12.935  0.00  0.00     0.179 C 
ATOM     70  C4  NAG d1177      11.181 -12.909  11.892  0.00  0.00     0.180 C 
BRANCH  66  71
ATOM     71  N2  NAG d1177       7.644 -11.957  10.992  0.00  0.00    -0.349 N 
ATOM     72  C7  NAG d1177       6.883 -10.867  10.942  0.00  0.00     0.214 C 
ATOM     73  C8  NAG d1177       5.559 -11.053  10.264  0.00  0.00     0.117 C 
ATOM     74  O7  NAG d1177       7.209  -9.763  11.390  0.00  0.00    -0.274 OA
ATOM     75  H   NAG d1177       7.415 -12.706  10.396  0.00  0.00     0.163 HD
ENDBRANCH  66  71
BRANCH  67  76
ATOM     76  O4  BDP d1176       7.454 -12.686  13.786  0.00  0.00    -0.348 OA
BRANCH  76  77
ATOM     77  C4  BDP d1176       6.904 -13.701  14.604  0.00  0.00     0.195 C 
ATOM     78  C5  BDP d1176       5.385 -13.661  14.501  0.00  0.00     0.257 C 
ATOM     79  O5  BDP d1176       4.818 -14.577  15.392  0.00  0.00    -0.340 OA
ATOM     80  C1  BDP d1176       4.958 -14.208  16.735  0.00  0.00     0.292 C 
ATOM     81  C2  BDP d1176       6.446 -14.119  17.097  0.00  0.00     0.204 C 
ATOM     82  C3  BDP d1176       7.328 -13.452  16.044  0.00  0.00     0.183 C 
BRANCH  78  83
ATOM     83  C6  BDP d1176       4.901 -14.045  13.119  0.00  0.00     0.206 C 
ATOM     84  O6A BDP d1176       5.098 -15.227  12.776  0.00  0.00    -0.646 OA
ATOM     85  O6B BDP d1176       4.343 -13.165  12.431  0.00  0.00    -0.646 OA
ENDBRANCH  78  83
BRANCH  80  86
ATOM     86  O3  NAG d1175       4.288 -15.199  17.546  0.00  0.00    -0.348 OA
BRANCH  86  87
ATOM     87  C3  NAG d1175       2.925 -14.888  17.834  0.00  0.00     0.183 C 
ATOM     88  C2  NAG d1175       2.668 -15.238  19.310  0.00  0.00     0.171 C 
ATOM     89  C1  NAG d1175       1.171 -15.276  19.644  0.00  0.00     0.282 C 
ATOM     90  O5  NAG d1175       0.527 -16.183  18.764  0.00  0.00    -0.349 OA
ATOM     91  C5  NAG d1175       0.530 -15.710  17.425  0.00  0.00     0.179 C 
ATOM     92  C4  NAG d1175       1.950 -15.587  16.868  0.00  0.00     0.180 C 
BRANCH  88  93
ATOM     93  N2  NAG d1175       3.381 -14.297  20.168  0.00  0.00    -0.349 N 
ATOM     94  C7  NAG d1175       4.038 -14.693  21.260  0.00  0.00     0.214 C 
ATOM     95  C8  NAG d1175       3.655 -14.006  22.542  0.00  0.00     0.117 C 
ATOM     96  O7  NAG d1175       4.919 -15.561  21.237  0.00  0.00    -0.274 OA
ATOM     97  H   NAG d1175       3.377 -13.341  19.934  0.00  0.00     0.163 HD
ENDBRANCH  88  93
BRANCH  89  98
ATOM     98  O1  NAG d1175       0.972 -15.675  20.986  0.00  0.00    -0.369 OA
ATOM     99  H   NAG d1175       0.022 -15.694  21.180  0.00  0.00     0.212 HD
ENDBRANCH  89  98
BRANCH  91 100
ATOM    100  C6  NAG d1175      -0.299 -16.636  16.543  0.00  0.00     0.198 C 
BRANCH 100 101
ATOM    101  O6  NAG d1175      -1.646 -16.533  16.944  0.00  0.00    -0.398 OA
ATOM    102  H   NAG d1175      -2.192 -17.116  16.394  0.00  0.00     0.209 HD
ENDBRANCH 100 101
ENDBRANCH  91 100
BRANCH  92 103
ATOM    103  O4  NAG d1175       1.859 -14.890  15.639  0.00  0.00    -0.390 OA
ATOM    104  H   NAG d1175       2.745 -14.793  15.256  0.00  0.00     0.210 HD
ENDBRANCH  92 103
ENDBRANCH  86  87
ENDBRANCH  80  86
BRANCH  81 105
ATOM    105  O2  BDP d1176       6.579 -13.340  18.261  0.00  0.00    -0.388 OA
ATOM    106  H   BDP d1176       6.266 -12.439  18.084  0.00  0.00     0.210 HD
ENDBRANCH  81 105
BRANCH  82 107
ATOM    107  O3  BDP d1176       8.670 -13.862  16.210  0.00  0.00    -0.390 OA
ATOM    108  H   BDP d1176       8.945 -13.705  17.127  0.00  0.00     0.210 HD
ENDBRANCH  82 107
ENDBRANCH  76  77
ENDBRANCH  67  76
BRANCH  69 109
ATOM    109  C6  NAG d1177      11.914 -14.345  13.860  0.00  0.00     0.198 C 
BRANCH 109 110
ATOM    110  O6  NAG d1177      11.755 -13.741  15.131  0.00  0.00    -0.398 OA
ATOM    111  H   NAG d1177      12.490 -14.002  15.707  0.00  0.00     0.209 HD
ENDBRANCH 109 110
ENDBRANCH  69 109
BRANCH  70 112
ATOM    112  O4  NAG d1177      12.195 -13.404  11.039  0.00  0.00    -0.390 OA
ATOM    113  H   NAG d1177      11.862 -14.176  10.555  0.00  0.00     0.210 HD
ENDBRANCH  70 112
ENDBRANCH  64  65
ENDBRANCH   2  64
TORSDOF 39
