REMARK  0 active torsions:
REMARK  status: ('A' for Active; 'I' for Inactive)
REMARK       I    between atoms: C1_1  and  O4_87 
REMARK       I    between atoms: O3_4  and  C3_52 
REMARK       I    between atoms: C3_5  and  O3_75 
REMARK       I    between atoms: C6_6  and  C5_12 
REMARK       I    between atoms: C2_7  and  O2_33 
REMARK       I    between atoms: O1_8  and  C1_21 
REMARK       I    between atoms: C7_9  and  N2_16 
REMARK       I    between atoms: C5_10  and  C6_51 
REMARK       I    between atoms: C2_13  and  N2_81 
REMARK       I    between atoms: C6_15  and  C5_59 
REMARK       I    between atoms: C6_15  and  O6_53 
REMARK       I    between atoms: N2_16  and  C2_66 
REMARK       I    between atoms: C3_17  and  O3_88 
REMARK       I    between atoms: C2_18  and  N2_24 
REMARK       I    between atoms: C4_19  and  O4_70 
REMARK       I    between atoms: C4_22  and  O4_84 
REMARK       I    between atoms: C7_23  and  N2_24 
REMARK       I    between atoms: O4_25  and  C4_86 
REMARK       I    between atoms: O4_25  and  C1_32 
REMARK       I    between atoms: C6_27  and  C5_38 
REMARK       I    between atoms: C7_29  and  N2_81 
REMARK       I    between atoms: O6_31  and  C6_51 
REMARK       I    between atoms: O4_34  and  C4_67 
REMARK       I    between atoms: C1_35  and  O3_74 
REMARK       I    between atoms: C6_36  and  C5_71 
REMARK       I    between atoms: N2_37  and  C2_76 
REMARK       I    between atoms: N2_37  and  C7_39 
REMARK       I    between atoms: C5_40  and  C6_63 
REMARK       I    between atoms: O6_42  and  C6_63 
REMARK       I    between atoms: C3_45  and  O3_56 
REMARK       I    between atoms: C5_46  and  C6_82 
REMARK       I    between atoms: C1_48  and  O3_75 
REMARK       I    between atoms: C1_49  and  O3_88 
REMARK       I    between atoms: O6_50  and  C6_82 
REMARK       I    between atoms: C3_54  and  O3_74 
REMARK       I    between atoms: O2_61  and  C2_68 
REMARK       I    between atoms: O4_64  and  C4_72 
REMARK       I    between atoms: C1_65  and  O4_70 
REMARK       I    between atoms: C3_69  and  O3_93 
REMARK       I    between atoms: C2_77  and  O2_85 
REMARK       I    between atoms: O4_78  and  C4_80 
REMARK       I    between atoms: O3_83  and  C3_92 
REMARK       I    between atoms: O4_87  and  C4_89 
ROOT
ATOM      1  C1  NAG d1181      11.787 -17.632  -4.717  0.00  0.00     0.286 C 
ATOM      2  C7  NAG d1181      15.146 -18.667  -4.610  0.00  0.00     0.214 C 
ATOM      3  C6  NAG d1181       8.647 -18.951  -6.125  0.00  0.00     0.198 C 
ATOM      4  N2  NAG d1181      14.147 -18.008  -5.197  0.00  0.00    -0.349 N 
ATOM      5  O7  NAG d1181      16.133 -19.057  -5.239  0.00  0.00    -0.274 OA
ATOM      6  O5  NAG d1181      10.500 -18.191  -4.826  0.00  0.00    -0.349 OA
ATOM      7  O4  NAG d1181      10.675 -19.354  -8.284  0.00  0.00    -0.390 OA
ATOM      8  O6  NAG d1181       7.727 -17.917  -5.842  0.00  0.00    -0.398 OA
ATOM      9  C8  NAG d1181      15.019 -18.924  -3.133  0.00  0.00     0.117 C 
ATOM     10  C5  NAG d1181      10.071 -18.391  -6.162  0.00  0.00     0.179 C 
ATOM     11  C2  NAG d1181      12.817 -18.587  -5.317  0.00  0.00     0.170 C 
ATOM     12  C4  NAG d1181      11.020 -19.333  -6.917  0.00  0.00     0.180 C 
ATOM     13  O3  NAG d1181      13.340 -19.961  -7.238  0.00  0.00    -0.391 OA
ATOM     14  C3  NAG d1181      12.489 -18.923  -6.774  0.00  0.00     0.177 C 
ATOM     15  H   NAG d1181      14.313 -17.107  -5.558  0.00  0.00     0.163 HD
ATOM     16  H   NAG d1181       9.745 -19.613  -8.379  0.00  0.00     0.210 HD
ATOM     17  H   NAG d1181       7.935 -17.527  -4.979  0.00  0.00     0.209 HD
ATOM     18  H   NAG d1181      14.266 -19.688  -7.141  0.00  0.00     0.210 HD
ATOM     19  O5  NAG d1175       0.527 -16.183  18.764  0.00  0.00    -0.349 OA
ATOM     20  C3  NAG d1175       2.925 -14.888  17.834  0.00  0.00     0.183 C 
ATOM     21  O1  NAG d1175       0.972 -15.675  20.986  0.00  0.00    -0.369 OA
ATOM     22  C2  NAG d1175       2.668 -15.238  19.310  0.00  0.00     0.171 C 
ATOM     23  C1  NAG d1175       1.171 -15.276  19.644  0.00  0.00     0.282 C 
ATOM     24  C7  NAG d1175       4.038 -14.693  21.260  0.00  0.00     0.214 C 
ATOM     25  C5  NAG d1175       0.530 -15.710  17.425  0.00  0.00     0.179 C 
ATOM     26  O6  NAG d1175      -1.646 -16.533  16.944  0.00  0.00    -0.398 OA
ATOM     27  C8  NAG d1175       3.655 -14.006  22.542  0.00  0.00     0.117 C 
ATOM     28  O7  NAG d1175       4.919 -15.561  21.237  0.00  0.00    -0.274 OA
ATOM     29  C6  NAG d1175      -0.299 -16.636  16.543  0.00  0.00     0.198 C 
ATOM     30  O3  NAG d1175       4.288 -15.199  17.546  0.00  0.00    -0.348 OA
ATOM     31  O4  NAG d1175       1.859 -14.890  15.639  0.00  0.00    -0.390 OA
ATOM     32  C4  NAG d1175       1.950 -15.587  16.868  0.00  0.00     0.180 C 
ATOM     33  N2  NAG d1175       3.381 -14.297  20.168  0.00  0.00    -0.349 N 
ATOM     34  H   NAG d1175       0.022 -15.694  21.180  0.00  0.00     0.212 HD
ATOM     35  H   NAG d1175      -2.192 -17.116  16.394  0.00  0.00     0.209 HD
ATOM     36  H   NAG d1175       2.745 -14.793  15.256  0.00  0.00     0.210 HD
ATOM     37  H   NAG d1175       3.377 -13.341  19.934  0.00  0.00     0.163 HD
ATOM     38  O5  BDP d1176       4.818 -14.577  15.392  0.00  0.00    -0.340 OA
ATOM     39  O3  BDP d1176       8.670 -13.862  16.210  0.00  0.00    -0.390 OA
ATOM     40  O4  BDP d1176       7.454 -12.686  13.786  0.00  0.00    -0.348 OA
ATOM     41  C6  BDP d1176       4.901 -14.045  13.119  0.00  0.00     0.206 C 
ATOM     42  C5  BDP d1176       5.385 -13.661  14.501  0.00  0.00     0.257 C 
ATOM     43  C1  BDP d1176       4.958 -14.208  16.735  0.00  0.00     0.292 C 
ATOM     44  C3  BDP d1176       7.328 -13.452  16.044  0.00  0.00     0.183 C 
ATOM     45  O6B BDP d1176       4.343 -13.165  12.431  0.00  0.00    -0.646 OA
ATOM     46  O6A BDP d1176       5.098 -15.227  12.776  0.00  0.00    -0.646 OA
ATOM     47  C2  BDP d1176       6.446 -14.119  17.097  0.00  0.00     0.204 C 
ATOM     48  O2  BDP d1176       6.579 -13.340  18.261  0.00  0.00    -0.388 OA
ATOM     49  C4  BDP d1176       6.904 -13.701  14.604  0.00  0.00     0.195 C 
ATOM     50  H   BDP d1176       8.945 -13.705  17.127  0.00  0.00     0.210 HD
ATOM     51  H   BDP d1176       6.266 -12.439  18.084  0.00  0.00     0.210 HD
ATOM     52  C6  BDP d1180      13.699 -14.978  -2.862  0.00  0.00     0.206 C 
ATOM     53  C2  BDP d1180       9.919 -15.714  -0.846  0.00  0.00     0.204 C 
ATOM     54  O6A BDP d1180      14.823 -15.497  -2.658  0.00  0.00    -0.646 OA
ATOM     55  C5  BDP d1180      12.529 -15.474  -2.010  0.00  0.00     0.257 C 
ATOM     56  O2  BDP d1180       9.383 -16.403   0.264  0.00  0.00    -0.388 OA
ATOM     57  C1  BDP d1180      11.046 -14.817  -0.334  0.00  0.00     0.292 C 
ATOM     58  C3  BDP d1180      10.359 -16.754  -1.885  0.00  0.00     0.183 C 
ATOM     59  O3  BDP d1180       9.241 -17.097  -2.678  0.00  0.00    -0.390 OA
ATOM     60  O6B BDP d1180      13.480 -14.074  -3.705  0.00  0.00    -0.646 OA
ATOM     61  O4  BDP d1180      12.148 -17.402  -3.345  0.00  0.00    -0.348 OA
ATOM     62  C4  BDP d1180      11.496 -16.279  -2.795  0.00  0.00     0.195 C 
ATOM     63  O5  BDP d1180      11.867 -14.387  -1.397  0.00  0.00    -0.340 OA
ATOM     64  H   BDP d1180      10.070 -16.960   0.661  0.00  0.00     0.210 HD
ATOM     65  H   BDP d1180       8.927 -16.311  -3.151  0.00  0.00     0.210 HD
ATOM     66  C5  NAG d1177      10.765 -13.946  12.935  0.00  0.00     0.179 C 
ATOM     67  O5  NAG d1177       9.695 -13.443  13.708  0.00  0.00    -0.349 OA
ATOM     68  C3  NAG d1177       9.988 -12.536  11.025  0.00  0.00     0.183 C 
ATOM     69  C2  NAG d1177       8.794 -12.115  11.871  0.00  0.00     0.171 C 
ATOM     70  C4  NAG d1177      11.181 -12.909  11.892  0.00  0.00     0.180 C 
ATOM     71  C7  NAG d1177       6.883 -10.867  10.942  0.00  0.00     0.214 C 
ATOM     72  N2  NAG d1177       7.644 -11.957  10.992  0.00  0.00    -0.349 N 
ATOM     73  O6  NAG d1177      11.755 -13.741  15.131  0.00  0.00    -0.398 OA
ATOM     74  C1  NAG d1177       8.526 -13.158  12.957  0.00  0.00     0.286 C 
ATOM     75  O7  NAG d1177       7.209  -9.763  11.390  0.00  0.00    -0.274 OA
ATOM     76  C6  NAG d1177      11.914 -14.345  13.860  0.00  0.00     0.198 C 
ATOM     77  C8  NAG d1177       5.559 -11.053  10.264  0.00  0.00     0.117 C 
ATOM     78  O4  NAG d1177      12.195 -13.404  11.039  0.00  0.00    -0.390 OA
ATOM     79  O3  NAG d1177      10.371 -11.477  10.178  0.00  0.00    -0.348 OA
ATOM     80  H   NAG d1177       7.415 -12.706  10.396  0.00  0.00     0.163 HD
ATOM     81  H   NAG d1177      12.490 -14.002  15.707  0.00  0.00     0.209 HD
ATOM     82  H   NAG d1177      11.862 -14.176  10.555  0.00  0.00     0.210 HD
ATOM     83  C4  BDP d1178      11.000 -11.814   6.022  0.00  0.00     0.195 C 
ATOM     84  O6B BDP d1178      11.759 -14.824   5.567  0.00  0.00    -0.646 OA
ATOM     85  C6  BDP d1178      12.117 -13.987   6.430  0.00  0.00     0.206 C 
ATOM     86  C1  BDP d1178      10.241 -11.783   8.779  0.00  0.00     0.292 C 
ATOM     87  O6A BDP d1178      13.288 -13.880   6.871  0.00  0.00    -0.646 OA
ATOM     88  O2  BDP d1178       9.522  -9.498   8.508  0.00  0.00    -0.388 OA
ATOM     89  C2  BDP d1178      10.404 -10.474   8.014  0.00  0.00     0.204 C 
ATOM     90  C3  BDP d1178      10.101 -10.712   6.556  0.00  0.00     0.183 C 
ATOM     91  O4  BDP d1178      10.438 -12.211   4.804  0.00  0.00    -0.348 OA
ATOM     92  C5  BDP d1178      11.031 -13.035   6.935  0.00  0.00     0.257 C 
ATOM     93  O5  BDP d1178      11.197 -12.708   8.310  0.00  0.00    -0.340 OA
ATOM     94  O3  BDP d1178      10.281  -9.530   5.809  0.00  0.00    -0.390 OA
ATOM     95  H   BDP d1178       9.709  -9.338   9.446  0.00  0.00     0.210 HD
ATOM     96  H   BDP d1178      11.204  -9.239   5.881  0.00  0.00     0.210 HD
ATOM     97  C8  NAG d1179       9.102 -15.931   4.502  0.00  0.00     0.117 C 
ATOM     98  N2  NAG d1179      10.489 -14.471   3.160  0.00  0.00    -0.349 N 
ATOM     99  C7  NAG d1179       9.268 -14.957   3.376  0.00  0.00     0.214 C 
ATOM    100  O7  NAG d1179       8.292 -14.642   2.698  0.00  0.00    -0.274 OA
ATOM    101  C5  NAG d1179      12.434 -10.983   2.011  0.00  0.00     0.179 C 
ATOM    102  O6  NAG d1179      11.675  -8.800   1.278  0.00  0.00    -0.398 OA
ATOM    103  C3  NAG d1179      11.362 -13.125   1.295  0.00  0.00     0.183 C 
ATOM    104  O4  NAG d1179      12.495 -11.728  -0.300  0.00  0.00    -0.390 OA
ATOM    105  C1  NAG d1179      11.353 -12.243   3.696  0.00  0.00     0.286 C 
ATOM    106  C4  NAG d1179      11.707 -11.701   0.872  0.00  0.00     0.180 C 
ATOM    107  O5  NAG d1179      11.602 -10.962   3.158  0.00  0.00    -0.349 OA
ATOM    108  O3  NAG d1179      10.476 -13.689   0.346  0.00  0.00    -0.348 OA
ATOM    109  C2  NAG d1179      10.668 -13.119   2.655  0.00  0.00     0.171 C 
ATOM    110  C6  NAG d1179      12.819  -9.549   1.646  0.00  0.00     0.198 C 
ATOM    111  H   NAG d1179      11.277 -15.032   3.344  0.00  0.00     0.163 HD
ATOM    112  H   NAG d1179      11.940  -7.895   1.051  0.00  0.00     0.209 HD
ATOM    113  H   NAG d1179      12.712 -10.820  -0.565  0.00  0.00     0.210 HD
ENDROOT
TORSDOF 39
