REMARK WARNING: 32 MAX_TORS EXCEEDED!!!
REMARK  35 active torsions:
REMARK  status: ('A' for Active; 'I' for Inactive)
REMARK    1 I    between atoms: C2_2  and  N_6 
REMARK    2 I    between atoms: C4_3  and  O4_47 
REMARK    3 I    between atoms: N_4  and  C2_53 
REMARK      I    between atoms: N_4  and  C7_33 
REMARK    4 I    between atoms: C3_5  and  O3_72 
REMARK      I    between atoms: N_6  and  C7_36 
REMARK    5 I    between atoms: C6_7  and  C5_9 
REMARK    6 I    between atoms: C6_7  and  O6_63 
REMARK    7 I    between atoms: O2_10  and  C2_82 
REMARK    8 I    between atoms: O6_11  and  C6_67 
REMARK    9 I    between atoms: C4_12  and  O4_68 
REMARK   10 I    between atoms: C5_13  and  C6_67 
REMARK   11 I    between atoms: C6_14  and  C5_71 
REMARK   12 I    between atoms: C6_14  and  O6_49 
REMARK   13 I    between atoms: C2_16  and  O2_22 
REMARK   14 I    between atoms: C1_17  and  O1_78 
REMARK   15 I    between atoms: C4_18  and  O4_65 
REMARK   16 I    between atoms: C6_19  and  C5_50 
REMARK   17 I    between atoms: C4_20  and  O4_51 
REMARK   18 I    between atoms: C1_21  and  O3_72 
REMARK   19 I    between atoms: O3_23  and  C3_28 
REMARK   20 I    between atoms: C5_25  and  C6_61 
REMARK   21 I    between atoms: O4_26  and  C4_66 
REMARK   22 I    between atoms: O4_26  and  S_74 
REMARK   23 I    between atoms: C3_29  and  O3_84 
REMARK   24 I    between atoms: C3_30  and  O3_52 
REMARK   25 I    between atoms: O2_31  and  C2_83 
REMARK   26 I    between atoms: C1_35  and  O3_84 
REMARK      I    between atoms: C7_37  and  N_81 
REMARK   27 I    between atoms: C6_42  and  C5_89 
REMARK   28 I    between atoms: S_43  and  O4_65 
REMARK   29 I    between atoms: O3_44  and  C3_90 
REMARK   30 I    between atoms: O4_47  and  C1_87 
REMARK   31 I    between atoms: O4_51  and  C1_59 
REMARK   32 I    between atoms: O4_57  and  C4_75 
REMARK   33 I    between atoms: O4_57  and  C1_76 
REMARK   34 I    between atoms: O4_68  and  S_70 
REMARK   35 I    between atoms: N_81  and  C2_88 
ROOT
ATOM      1  C4  ASG d 304      13.610  37.102  53.667  0.00  0.00     0.207 C 
ATOM      2  C3  ASG d 304      13.004  36.117  52.646  0.00  0.00     0.185 C 
ATOM      3  O5  ASG d 304      15.402  37.612  52.055  0.00  0.00    -0.349 OA
ATOM      4  C2  ASG d 304      14.114  35.513  51.802  0.00  0.00     0.171 C 
ATOM      5  C1  ASG d 304      14.856  36.655  51.100  0.00  0.00     0.286 C 
ATOM      6  C5  ASG d 304      14.368  38.207  52.895  0.00  0.00     0.181 C 
ENDROOT
BRANCH   5   7
ATOM      7  O4  BDP d 303      15.899  36.136  50.349  0.00  0.00    -0.348 OA
BRANCH   7   8
ATOM      8  C4  BDP d 303      16.525  36.966  49.431  0.00  0.00     0.195 C 
ATOM      9  C3  BDP d 303      18.039  36.933  49.684  0.00  0.00     0.183 C 
ATOM     10  C2  BDP d 303      18.708  37.829  48.660  0.00  0.00     0.204 C 
ATOM     11  C1  BDP d 303      18.379  37.317  47.267  0.00  0.00     0.292 C 
ATOM     12  O5  BDP d 303      16.945  37.286  47.038  0.00  0.00    -0.340 OA
ATOM     13  C5  BDP d 303      16.245  36.444  47.996  0.00  0.00     0.257 C 
BRANCH   9  14
ATOM     14  O3  BDP d 303      18.333  37.427  51.001  0.00  0.00    -0.390 OA
ATOM     15  H   BDP d 303      18.012  38.339  51.084  0.00  0.00     0.210 HD
ENDBRANCH   9  14
BRANCH  10  16
ATOM     16  O2  BDP d 303      20.128  37.813  48.835  0.00  0.00    -0.388 OA
ATOM     17  H   BDP d 303      20.542  38.390  48.174  0.00  0.00     0.210 HD
ENDBRANCH  10  16
BRANCH  11  18
ATOM     18  O3  ASG d 302      18.957  38.150  46.325  0.00  0.00    -0.348 OA
BRANCH  18  19
ATOM     19  C3  ASG d 302      18.842  37.701  45.023  0.00  0.00     0.185 C 
ATOM     20  C2  ASG d 302      20.245  37.565  44.460  0.00  0.00     0.171 C 
ATOM     21  C1  ASG d 302      20.119  37.134  43.006  0.00  0.00     0.286 C 
ATOM     22  O5  ASG d 302      19.348  38.079  42.229  0.00  0.00    -0.349 OA
ATOM     23  C5  ASG d 302      18.008  38.259  42.744  0.00  0.00     0.181 C 
ATOM     24  C4  ASG d 302      18.083  38.757  44.202  0.00  0.00     0.207 C 
BRANCH  20  25
ATOM     25  N   ASG d 302      21.013  36.541  45.229  0.00  0.00    -0.349 N 
ATOM     26  C7  ASG d 302      22.131  36.883  45.985  0.00  0.00     0.214 C 
ATOM     27  C8  ASG d 302      22.746  35.696  46.689  0.00  0.00     0.117 C 
ATOM     28  O7  ASG d 302      22.580  38.014  46.084  0.00  0.00    -0.274 OA
ATOM     29  H   ASG d 302      20.722  35.601  45.201  0.00  0.00     0.163 HD
ENDBRANCH  20  25
BRANCH  21  30
ATOM     30  O4  BDP d 301      21.364  37.047  42.449  0.00  0.00    -0.348 OA
BRANCH  30  31
ATOM     31  C4  BDP d 301      21.624  36.395  41.259  0.00  0.00     0.195 C 
ATOM     32  C3  BDP d 301      21.828  37.464  40.156  0.00  0.00     0.183 C 
ATOM     33  C2  BDP d 301      22.292  36.774  38.882  0.00  0.00     0.204 C 
ATOM     34  C1  BDP d 301      23.590  36.092  39.202  0.00  0.00     0.289 C 
ATOM     35  O5  BDP d 301      23.447  35.105  40.269  0.00  0.00    -0.340 OA
ATOM     36  C5  BDP d 301      22.948  35.671  41.502  0.00  0.00     0.257 C 
BRANCH  32  37
ATOM     37  O3  BDP d 301      20.595  38.138  39.896  0.00  0.00    -0.390 OA
ATOM     38  H   BDP d 301      20.292  38.581  40.704  0.00  0.00     0.210 HD
ENDBRANCH  32  37
BRANCH  33  39
ATOM     39  O2  BDP d 301      22.522  37.715  37.836  0.00  0.00    -0.388 OA
ATOM     40  H   BDP d 301      23.201  38.349  38.115  0.00  0.00     0.210 HD
ENDBRANCH  33  39
BRANCH  34  41
ATOM     41  O1  BDP d 301      24.159  35.362  38.010  0.00  0.00    -0.368 OA
ATOM     42  H   BDP d 301      23.554  34.651  37.747  0.00  0.00     0.212 HD
ENDBRANCH  34  41
BRANCH  36  43
ATOM     43  C6  BDP d 301      22.856  34.560  42.540  0.00  0.00     0.206 C 
ATOM     44  O6A BDP d 301      23.381  34.827  43.643  0.00  0.00    -0.646 OA
ATOM     45  O6B BDP d 301      22.271  33.521  42.162  0.00  0.00    -0.646 OA
ENDBRANCH  36  43
ENDBRANCH  30  31
ENDBRANCH  21  30
BRANCH  23  46
ATOM     46  C6  ASG d 302      17.294  39.214  41.822  0.00  0.00     0.199 C 
BRANCH  46  47
ATOM     47  O6  ASG d 302      16.917  38.558  40.615  0.00  0.00    -0.398 OA
ATOM     48  H   ASG d 302      17.711  38.230  40.164  0.00  0.00     0.209 HD
ENDBRANCH  46  47
ENDBRANCH  23  46
BRANCH  24  49
ATOM     49  O4  ASG d 302      18.823  39.993  44.229  0.00  0.00    -0.246 OA
BRANCH  49  50
ATOM     50  S   ASG d 302      18.056  41.330  44.663  0.00  0.00     0.252 S 
ATOM     51  OSA ASG d 302      17.171  41.060  45.781  0.00  0.00    -0.572 OA
ATOM     52  OSB ASG d 302      17.283  41.819  43.538  0.00  0.00    -0.572 OA
ATOM     53  OSC ASG d 302      19.027  42.329  45.048  0.00  0.00    -0.572 OA
ENDBRANCH  49  50
ENDBRANCH  24  49
ENDBRANCH  18  19
ENDBRANCH  11  18
BRANCH  13  54
ATOM     54  C6  BDP d 303      14.765  36.444  47.620  0.00  0.00     0.206 C 
ATOM     55  O6A BDP d 303      14.359  35.375  47.109  0.00  0.00    -0.646 OA
ATOM     56  O6B BDP d 303      14.141  37.496  47.866  0.00  0.00    -0.646 OA
ENDBRANCH  13  54
ENDBRANCH   7   8
ENDBRANCH   5   7
BRANCH   4  57
ATOM     57  N   ASG d 304      13.533  34.573  50.786  0.00  0.00    -0.349 N 
ATOM     58  C7  ASG d 304      14.227  33.467  50.317  0.00  0.00     0.214 C 
ATOM     59  C8  ASG d 304      13.440  32.671  49.301  0.00  0.00     0.117 C 
ATOM     60  O7  ASG d 304      15.352  33.159  50.675  0.00  0.00    -0.274 OA
ATOM     61  H   ASG d 304      12.628  34.747  50.440  0.00  0.00     0.163 HD
ENDBRANCH   4  57
BRANCH   6  62
ATOM     62  C6  ASG d 304      15.026  39.217  53.803  0.00  0.00     0.199 C 
BRANCH  62  63
ATOM     63  O6  ASG d 304      15.326  40.418  53.090  0.00  0.00    -0.398 OA
ATOM     64  H   ASG d 304      15.936  40.218  52.362  0.00  0.00     0.209 HD
ENDBRANCH  62  63
ENDBRANCH   6  62
BRANCH   2  65
ATOM     65  O3  ASG d 304      12.303  35.081  53.315  0.00  0.00    -0.348 OA
BRANCH  65  66
ATOM     66  C1  BDP d 305      10.940  34.930  52.979  0.00  0.00     0.292 C 
ATOM     67  C2  BDP d 305      10.143  36.161  53.436  0.00  0.00     0.204 C 
ATOM     68  C3  BDP d 305       8.691  36.009  53.027  0.00  0.00     0.183 C 
ATOM     69  C4  BDP d 305       8.669  35.881  51.492  0.00  0.00     0.195 C 
ATOM     70  C5  BDP d 305       9.445  34.609  51.079  0.00  0.00     0.257 C 
ATOM     71  O5  BDP d 305      10.826  34.740  51.536  0.00  0.00    -0.340 OA
BRANCH  67  72
ATOM     72  O2  BDP d 305      10.271  36.282  54.855  0.00  0.00    -0.388 OA
ATOM     73  H   BDP d 305       9.772  37.056  55.160  0.00  0.00     0.210 HD
ENDBRANCH  67  72
BRANCH  68  74
ATOM     74  O3  BDP d 305       7.977  37.173  53.449  0.00  0.00    -0.390 OA
ATOM     75  H   BDP d 305       8.003  37.235  54.417  0.00  0.00     0.210 HD
ENDBRANCH  68  74
BRANCH  69  76
ATOM     76  O4  BDP d 305       7.378  35.855  51.003  0.00  0.00    -0.348 OA
BRANCH  76  77
ATOM     77  C1  ASG d 306       6.718  36.695  50.111  0.00  0.00     0.283 C 
ATOM     78  O5  ASG d 306       6.833  38.071  50.544  0.00  0.00    -0.349 OA
ATOM     79  C5  ASG d 306       6.138  39.010  49.667  0.00  0.00     0.178 C 
ATOM     80  C4  ASG d 306       4.617  38.681  49.625  0.00  0.00     0.178 C 
ATOM     81  C3  ASG d 306       4.399  37.230  49.064  0.00  0.00     0.066 C 
ATOM     82  C2  ASG d 306       5.282  36.274  50.040  0.00  0.00     0.142 C 
BRANCH  79  83
ATOM     83  C6  ASG d 306       6.400  40.396  50.214  0.00  0.00     0.198 C 
BRANCH  83  84
ATOM     84  O6  ASG d 306       7.801  40.633  50.342  0.00  0.00    -0.398 OA
ATOM     85  H   ASG d 306       7.947  41.525  50.694  0.00  0.00     0.209 HD
ENDBRANCH  83  84
ENDBRANCH  79  83
BRANCH  80  86
ATOM     86  O4  ASG d 306       4.113  38.724  50.961  0.00  0.00    -0.249 OA
BRANCH  86  87
ATOM     87  S   ASG d 306       2.813  39.597  51.221  0.00  0.00     0.252 S 
ATOM     88  OSB ASG d 306       2.447  39.492  52.622  0.00  0.00    -0.572 OA
ATOM     89  OSA ASG d 306       3.096  40.984  50.898  0.00  0.00    -0.572 OA
ATOM     90  OSC ASG d 306       1.729  39.117  50.393  0.00  0.00    -0.572 OA
ENDBRANCH  86  87
ENDBRANCH  80  86
BRANCH  82  91
ATOM     91  N   ASG d 306       5.222  34.846  49.595  0.00  0.00    -0.352 N 
ATOM     92  C7  ASG d 306       4.984  33.813  50.505  0.00  0.00     0.214 C 
ATOM     93  O7  ASG d 306       4.805  33.972  51.709  0.00  0.00    -0.274 OA
ATOM     94  C8  ASG d 306       4.978  32.454  49.851  0.00  0.00     0.117 C 
ATOM     95  H   ASG d 306       5.353  34.631  48.643  0.00  0.00     0.163 HD
ENDBRANCH  82  91
ENDBRANCH  76  77
ENDBRANCH  69  76
BRANCH  70  96
ATOM     96  C6  BDP d 305       9.467  34.387  49.573  0.00  0.00     0.206 C 
ATOM     97  O6B BDP d 305      10.239  35.123  48.930  0.00  0.00    -0.646 OA
ATOM     98  O6A BDP d 305       8.694  33.485  49.167  0.00  0.00    -0.646 OA
ENDBRANCH  70  96
ENDBRANCH  65  66
ENDBRANCH   2  65
BRANCH   1  99
ATOM     99  O4  ASG d 304      14.532  36.419  54.531  0.00  0.00    -0.246 OA
BRANCH  99 100
ATOM    100  S   ASG d 304      14.191  36.442  56.090  0.00  0.00     0.252 S 
ATOM    101  OSC ASG d 304      15.144  35.609  56.795  0.00  0.00    -0.572 OA
ATOM    102  OSA ASG d 304      12.845  35.935  56.302  0.00  0.00    -0.572 OA
ATOM    103  OSB ASG d 304      14.268  37.802  56.593  0.00  0.00    -0.572 OA
ENDBRANCH  99 100
ENDBRANCH   1  99
TORSDOF 35
