REMARK  0 active torsions:
REMARK  status: ('A' for Active; 'I' for Inactive)
REMARK       I    between atoms: O3K_1  and  S3H_43 
REMARK       I    between atoms: N3G_4  and  C3F_61 
REMARK       I    between atoms: N3G_4  and  S3H_43 
REMARK       I    between atoms: O1L_5  and  C1K_51 
REMARK       I    between atoms: O1L_5  and  C20_76 
REMARK       I    between atoms: O5M_7  and  C5L_83 
REMARK       I    between atoms: N1F_8  and  C1E_23 
REMARK       I    between atoms: N1F_8  and  S1G_56 
REMARK       I    between atoms: C30_9  and  O2D_58 
REMARK       I    between atoms: N5G_10  and  C5F_30 
REMARK       I    between atoms: N5G_10  and  S5H_20 
REMARK       I    between atoms: C41_11  and  C43_90 
REMARK       I    between atoms: C40_13  and  O3M_80 
REMARK       I    between atoms: O10_15  and  C12_87 
REMARK       I    between atoms: O4G_16  and  C4F_66 
REMARK       I    between atoms: O4G_16  and  C50_89 
REMARK       I    between atoms: O1I_18  and  S1G_56 
REMARK       I    between atoms: O3A_19  and  C39_49 
REMARK       I    between atoms: O3A_19  and  S3B_73 
REMARK       I    between atoms: S5H_20  and  O5I_41 
REMARK       I    between atoms: S5H_20  and  O5J_50 
REMARK       I    between atoms: S5H_20  and  O5K_69 
REMARK       I    between atoms: C1B_22  and  O1C_48 
REMARK       I    between atoms: C29_25  and  O2A_68 
REMARK       I    between atoms: C13_26  and  C15_53 
REMARK       I    between atoms: O34_27  and  C33_42 
REMARK       I    between atoms: O34_27  and  S35_44 
REMARK       I    between atoms: C59_28  and  O5A_71 
REMARK       I    between atoms: O27_29  and  C26_84 
REMARK       I    between atoms: C21_33  and  C23_91 
REMARK       I    between atoms: O16_34  and  C15_53 
REMARK       I    between atoms: O16_34  and  S17_54 
REMARK       I    between atoms: C2C_35  and  O2D_58 
REMARK       I    between atoms: S55_38  and  O54_85 
REMARK       I    between atoms: C3L_40  and  O3M_80 
REMARK       I    between atoms: C33_42  and  C31_81 
REMARK       I    between atoms: S3H_43  and  O3I_57 
REMARK       I    between atoms: S3H_43  and  O3J_47 
REMARK       I    between atoms: O4A_45  and  C49_55 
REMARK       I    between atoms: O4A_45  and  S4B_60 
REMARK       I    between atoms: C46_52  and  O47_67 
REMARK       I    between atoms: S1G_56  and  O1H_65 
REMARK       I    between atoms: S1G_56  and  O1J_77 
REMARK       I    between atoms: C53_72  and  C51_88 
REMARK       I    between atoms: C53_72  and  O54_85 
ROOT
ATOM      1  O3K NTO d 863      63.955   6.835  11.986  0.00  0.00    -0.296 OA
ATOM      2  C5N NTO d 863      69.475  -2.490  20.684  0.00  0.00     0.204 C 
ATOM      3  O18 NTO d 863      51.020   0.399  11.045  0.00  0.00    -0.572 OA
ATOM      4  N3G NTO d 863      62.771   5.092  13.411  0.00  0.00    -0.210 NA
ATOM      5  O1L NTO d 863      56.359   1.222   7.908  0.00  0.00    -0.348 OA
ATOM      6  O25 NTO d 863      56.100   3.699   8.665  0.00  0.00    -0.646 OA
ATOM      7  O5M NTO d 863      69.341  -1.573  19.595  0.00  0.00    -0.364 OA
ATOM      8  N1F NTO d 863      56.411  -0.655   5.811  0.00  0.00    -0.210 NA
ATOM      9  C30 NTO d 863      61.958   2.520  10.742  0.00  0.00     0.188 C 
ATOM     10  N5G NTO d 863      67.060  -3.005  18.712  0.00  0.00    -0.210 NA
ATOM     11  C41 NTO d 863      65.900   1.017  13.586  0.00  0.00     0.257 C 
ATOM     12  O24 NTO d 863      57.175   4.068  10.566  0.00  0.00    -0.646 OA
ATOM     13  C40 NTO d 863      65.838   2.302  12.775  0.00  0.00     0.195 C 
ATOM     14  O36 NTO d 863      61.846   1.240   6.515  0.00  0.00    -0.572 OA
ATOM     15  O10 NTO d 863      52.704   2.498   5.979  0.00  0.00    -0.390 OA
ATOM     16  O4G NTO d 863      68.188   0.776  15.816  0.00  0.00    -0.348 OA
ATOM     17  O3E NTO d 863      59.727   2.109  13.606  0.00  0.00    -0.572 OA
ATOM     18  O1I NTO d 863      55.951  -3.142   6.254  0.00  0.00    -0.296 OA
ATOM     19  O3A NTO d 863      60.502   3.851  12.150  0.00  0.00    -0.247 OA
ATOM     20  S5H NTO d 863      65.738  -3.471  19.548  0.00  0.00     0.156 S 
ATOM     21  O4D NTO d 863      70.436   2.770  12.573  0.00  0.00    -0.572 OA
ATOM     22  C1B NTO d 863      54.482   0.865   5.768  0.00  0.00     0.172 C 
ATOM     23  C1E NTO d 863      55.157  -0.302   6.491  0.00  0.00     0.157 C 
ATOM     24  O4E NTO d 863      71.407   3.690  14.628  0.00  0.00    -0.572 OA
ATOM     25  C29 NTO d 863      59.482   0.005   9.649  0.00  0.00     0.204 C 
ATOM     26  C13 NTO d 863      53.604   1.595   8.019  0.00  0.00     0.181 C 
ATOM     27  O34 NTO d 863      63.302   2.263   8.111  0.00  0.00    -0.254 OA
ATOM     28  C59 NTO d 863      67.618  -1.151  17.194  0.00  0.00     0.173 C 
ATOM     29  O27 NTO d 863      57.715  -1.271   8.630  0.00  0.00    -0.390 OA
ATOM     30  C5F NTO d 863      67.121  -1.541  18.588  0.00  0.00     0.157 C 
ATOM     31  O4C NTO d 863      70.482   1.423  14.620  0.00  0.00    -0.572 OA
ATOM     32  O44 NTO d 863      64.663  -0.816  12.691  0.00  0.00    -0.646 OA
ATOM     33  C21 NTO d 863      58.080   2.437   9.078  0.00  0.00     0.257 C 
ATOM     34  O16 NTO d 863      52.500   2.059  10.177  0.00  0.00    -0.254 OA
ATOM     35  C2C NTO d 863      60.118   1.394   9.739  0.00  0.00     0.292 C 
ATOM     36  O37 NTO d 863      64.218   0.632   6.613  0.00  0.00    -0.572 OA
ATOM     37  O22 NTO d 863      59.117   2.367  10.075  0.00  0.00    -0.340 OA
ATOM     38  S55 NTO d 863      67.573   4.360  18.726  0.00  0.00     0.251 S 
ATOM     39  O38 NTO d 863      63.545   2.842   5.797  0.00  0.00    -0.572 OA
ATOM     40  C3L NTO d 863      64.253   3.859  11.893  0.00  0.00     0.282 C 
ATOM     41  O5I NTO d 863      64.641  -3.818  18.586  0.00  0.00    -0.296 OA
ATOM     42  C33 NTO d 863      63.559   1.382   9.207  0.00  0.00     0.227 C 
ATOM     43  S3H NTO d 863      63.778   6.372  13.401  0.00  0.00     0.156 S 
ATOM     44  S35 NTO d 863      63.231   1.750   6.775  0.00  0.00     0.251 S 
ATOM     45  O4A NTO d 863      69.053   3.336  14.451  0.00  0.00    -0.244 OA
ATOM     46  O42 NTO d 863      66.033   1.332  14.981  0.00  0.00    -0.340 OA
ATOM     47  O3J NTO d 863      63.196   7.482  14.225  0.00  0.00    -0.296 OA
ATOM     48  O1C NTO d 863      54.101   0.444   4.456  0.00  0.00    -0.391 OA
ATOM     49  C39 NTO d 863      61.814   3.287  12.060  0.00  0.00     0.200 C 
ATOM     50  O5J NTO d 863      65.275  -2.363  20.447  0.00  0.00    -0.296 OA
ATOM     51  C1K NTO d 863      55.465   0.099   7.934  0.00  0.00     0.282 C 
ATOM     52  C46 NTO d 863      66.934   3.249  13.269  0.00  0.00     0.185 C 
ATOM     53  C15 NTO d 863      52.297   1.856   8.776  0.00  0.00     0.227 C 
ATOM     54  S17 NTO d 863      51.429   1.841  11.103  0.00  0.00     0.251 S 
ATOM     55  C49 NTO d 863      67.988   2.466  14.055  0.00  0.00     0.231 C 
ATOM     56  S1G NTO d 863      56.295  -2.154   5.179  0.00  0.00     0.156 S 
ATOM     57  O3I NTO d 863      65.104   5.970  13.975  0.00  0.00    -0.296 OA
ATOM     58  O2D NTO d 863      61.131   1.346  10.754  0.00  0.00    -0.348 OA
ATOM     59  O19 NTO d 863      50.258   2.707  10.746  0.00  0.00    -0.572 OA
ATOM     60  S4B NTO d 863      70.328   2.810  14.069  0.00  0.00     0.252 S 
ATOM     61  C3F NTO d 863      62.844   4.417  12.108  0.00  0.00     0.159 C 
ATOM     62  O45 NTO d 863      63.552   0.694  13.861  0.00  0.00    -0.646 OA
ATOM     63  O1A NTO d 863      51.891   2.175  12.489  0.00  0.00    -0.572 OA
ATOM     64  O58 NTO d 863      66.714   4.803  19.873  0.00  0.00    -0.572 OA
ATOM     65  O1H NTO d 863      55.221  -2.154   4.132  0.00  0.00    -0.296 OA
ATOM     66  C4F NTO d 863      67.351   1.817  15.287  0.00  0.00     0.294 C 
ATOM     67  O47 NTO d 863      67.558   3.876  12.146  0.00  0.00    -0.390 OA
ATOM     68  O2A NTO d 863      60.481  -0.954   9.300  0.00  0.00    -0.388 OA
ATOM     69  O5K NTO d 863      66.067  -4.671  20.385  0.00  0.00    -0.296 OA
ATOM     70  O57 NTO d 863      68.926   4.997  18.850  0.00  0.00    -0.572 OA
ATOM     71  O5A NTO d 863      66.696  -1.624  16.210  0.00  0.00    -0.391 OA
ATOM     72  C53 NTO d 863      68.869   2.318  18.180  0.00  0.00     0.227 C 
ATOM     73  S3B NTO d 863      59.892   3.588  13.418  0.00  0.00     0.252 S 
ATOM     74  O32 NTO d 863      64.299   3.218  10.608  0.00  0.00    -0.349 OA
ATOM     75  O3C NTO d 863      60.742   4.131  14.528  0.00  0.00    -0.572 OA
ATOM     76  C20 NTO d 863      57.360   1.102   8.930  0.00  0.00     0.195 C 
ATOM     77  O1J NTO d 863      57.607  -2.540   4.564  0.00  0.00    -0.296 OA
ATOM     78  O3D NTO d 863      58.546   4.248  13.456  0.00  0.00    -0.572 OA
ATOM     79  O52 NTO d 863      68.172   0.461  19.484  0.00  0.00    -0.349 OA
ATOM     80  O3M NTO d 863      64.547   2.913  12.933  0.00  0.00    -0.348 OA
ATOM     81  C31 NTO d 863      63.406   2.094  10.554  0.00  0.00     0.181 C 
ATOM     82  O14 NTO d 863      54.241   0.447   8.602  0.00  0.00    -0.349 OA
ATOM     83  C5L NTO d 863      68.046  -0.959  19.658  0.00  0.00     0.280 C 
ATOM     84  C26 NTO d 863      58.368   0.002   8.600  0.00  0.00     0.183 C 
ATOM     85  O54 NTO d 863      67.709   2.936  18.740  0.00  0.00    -0.254 OA
ATOM     86  O56 NTO d 863      66.935   4.767  17.432  0.00  0.00    -0.572 OA
ATOM     87  C12 NTO d 863      53.248   1.309   6.558  0.00  0.00     0.179 C 
ATOM     88  C51 NTO d 863      68.703   0.799  18.193  0.00  0.00     0.181 C 
ATOM     89  C50 NTO d 863      67.720   0.374  17.113  0.00  0.00     0.186 C 
ATOM     90  C43 NTO d 863      64.604   0.235  13.363  0.00  0.00     0.206 C 
ATOM     91  C23 NTO d 863      57.046   3.480   9.461  0.00  0.00     0.206 C 
ATOM     92  H   NTO d 863      64.331   6.116  11.455  0.00  0.00     0.231 HD
ATOM     93  H   NTO d 863      63.049   4.444  14.148  0.00  0.00     0.140 HD
ATOM     94  H   NTO d 863      57.179  -0.629   6.482  0.00  0.00     0.140 HD
ATOM     95  H   NTO d 863      67.894  -3.333  19.199  0.00  0.00     0.140 HD
ATOM     96  H   NTO d 863      52.474   2.330   5.052  0.00  0.00     0.210 HD
ATOM     97  H   NTO d 863      55.103  -2.899   6.657  0.00  0.00     0.231 HD
ATOM     98  H   NTO d 863      58.356  -1.968   8.420  0.00  0.00     0.210 HD
ATOM     99  H   NTO d 863      64.428  -3.042  18.045  0.00  0.00     0.231 HD
ATOM    100  H   NTO d 863      62.338   7.744  13.855  0.00  0.00     0.231 HD
ATOM    101  H   NTO d 863      53.486  -0.303   4.522  0.00  0.00     0.210 HD
ATOM    102  H   NTO d 863      65.060  -1.582  19.913  0.00  0.00     0.231 HD
ATOM    103  H   NTO d 863      65.482   5.252  13.444  0.00  0.00     0.231 HD
ATOM    104  H   NTO d 863      54.376  -1.904   4.536  0.00  0.00     0.231 HD
ATOM    105  H   NTO d 863      67.952   3.198  11.575  0.00  0.00     0.210 HD
ATOM    106  H   NTO d 863      60.864  -0.723   8.439  0.00  0.00     0.210 HD
ATOM    107  H   NTO d 863      66.368  -5.393  19.811  0.00  0.00     0.231 HD
ATOM    108  H   NTO d 863      65.824  -1.231  16.369  0.00  0.00     0.210 HD
ATOM    109  H   NTO d 863      58.297  -2.538   5.246  0.00  0.00     0.231 HD
ENDROOT
TORSDOF 45
