REMARK  0 active torsions:
REMARK  status: ('A' for Active; 'I' for Inactive)
REMARK       I    between atoms: O3_1  and  C3_39 
REMARK       I    between atoms: S_2  and  O4_5 
REMARK       I    between atoms: C6_3  and  C5_7 
REMARK       I    between atoms: C6_3  and  O6_32 
REMARK       I    between atoms: C7_4  and  N_40 
REMARK       I    between atoms: O4_5  and  C4_43 
REMARK       I    between atoms: C1_6  and  O3_31 
REMARK       I    between atoms: C2_9  and  O2_16 
REMARK       I    between atoms: C2_11  and  N_40 
REMARK       I    between atoms: C5_13  and  C6_58 
REMARK       I    between atoms: C3_18  and  O3_29 
REMARK       I    between atoms: C3_21  and  O3_51 
REMARK       I    between atoms: C1_22  and  O1_34 
REMARK       I    between atoms: C1_24  and  O3_51 
REMARK       I    between atoms: S_27  and  O4_38 
REMARK       I    between atoms: C2_30  and  N_55 
REMARK       I    between atoms: O3_31  and  C3_44 
REMARK       I    between atoms: C5_33  and  C6_53 
REMARK       I    between atoms: C7_35  and  N_55 
REMARK       I    between atoms: C5_36  and  C6_46 
REMARK       I    between atoms: O1_37  and  C1_49 
REMARK       I    between atoms: O1_37  and  C4_41 
REMARK       I    between atoms: O4_38  and  C4_52 
REMARK       I    between atoms: C6_46  and  O6_56 
REMARK       I    between atoms: C2_50  and  O2_59 
ROOT
ATOM      1  O3  GCT d 811       2.211  41.820  78.714  0.00  0.00    -0.390 OA
ATOM      2  C1  GCT d 811       3.221  44.631  76.841  0.00  0.00     0.292 C 
ATOM      3  C5  GCT d 811       0.919  44.044  75.983  0.00  0.00     0.257 C 
ATOM      4  O6A GCT d 811       0.030  46.268  75.532  0.00  0.00    -0.646 OA
ATOM      5  C3  GCT d 811       2.230  42.692  77.693  0.00  0.00     0.183 C 
ATOM      6  C4  GCT d 811       0.850  43.049  77.139  0.00  0.00     0.195 C 
ATOM      7  O6B GCT d 811      -1.342  44.703  76.212  0.00  0.00    -0.646 OA
ATOM      8  C2  GCT d 811       2.857  44.001  78.167  0.00  0.00     0.204 C 
ATOM      9  O5  GCT d 811       2.266  44.480  75.800  0.00  0.00    -0.340 OA
ATOM     10  C6  GCT d 811      -0.200  45.100  75.922  0.00  0.00     0.206 C 
ATOM     11  O2  GCT d 811       4.068  43.573  78.724  0.00  0.00    -0.388 OA
ATOM     12  H   GCT d 811       3.119  41.646  79.007  0.00  0.00     0.210 HD
ATOM     13  H   GCT d 811       4.540  43.019  78.084  0.00  0.00     0.210 HD
ATOM     14  S   ASG d 810       0.035  35.617  76.987  0.00  0.00     0.252 S 
ATOM     15  C6  ASG d 810       0.718  38.403  79.256  0.00  0.00     0.199 C 
ATOM     16  O4  ASG d 810       0.090  37.221  76.742  0.00  0.00    -0.246 OA
ATOM     17  C5  ASG d 810      -0.251  39.085  78.344  0.00  0.00     0.181 C 
ATOM     18  C8  ASG d 810      -2.691  40.392  72.344  0.00  0.00     0.117 C 
ATOM     19  O7  ASG d 810      -0.581  39.398  72.827  0.00  0.00    -0.274 OA
ATOM     20  OSA ASG d 810       0.484  35.426  78.344  0.00  0.00    -0.572 OA
ATOM     21  OSB ASG d 810      -1.406  35.156  76.951  0.00  0.00    -0.572 OA
ATOM     22  C3  ASG d 810      -1.772  38.687  76.373  0.00  0.00     0.185 C 
ATOM     23  C2  ASG d 810      -0.913  39.679  75.607  0.00  0.00     0.171 C 
ATOM     24  O6  ASG d 810       1.306  39.389  79.957  0.00  0.00    -0.398 OA
ATOM     25  C7  ASG d 810      -1.587  40.017  73.225  0.00  0.00     0.214 C 
ATOM     26  O1  ASG d 810       0.480  41.586  75.870  0.00  0.00    -0.348 OA
ATOM     27  OSC ASG d 810       0.918  35.048  75.884  0.00  0.00    -0.572 OA
ATOM     28  C4  ASG d 810      -0.915  38.049  77.425  0.00  0.00     0.207 C 
ATOM     29  C1  ASG d 810      -0.347  40.701  76.591  0.00  0.00     0.286 C 
ATOM     30  O3  ASG d 810      -2.243  37.663  75.456  0.00  0.00    -0.348 OA
ATOM     31  N   ASG d 810      -1.755  40.225  74.562  0.00  0.00    -0.349 N 
ATOM     32  O5  ASG d 810       0.486  40.004  77.496  0.00  0.00    -0.349 OA
ATOM     33  H   ASG d 810       1.735  40.008  79.346  0.00  0.00     0.209 HD
ATOM     34  H   ASG d 810      -2.510  40.792  74.840  0.00  0.00     0.163 HD
ATOM     35  C7  ASG d 812       6.413  46.213  79.221  0.00  0.00     0.214 C 
ATOM     36  C2  ASG d 812       5.541  47.111  77.099  0.00  0.00     0.171 C 
ATOM     37  O7  ASG d 812       6.359  47.315  79.793  0.00  0.00    -0.274 OA
ATOM     38  OSA ASG d 812       1.356  48.976  74.479  0.00  0.00    -0.572 OA
ATOM     39  C1  ASG d 812       6.549  47.969  76.312  0.00  0.00     0.282 C 
ATOM     40  OSC ASG d 812       2.378  50.939  75.459  0.00  0.00    -0.572 OA
ATOM     41  OSB ASG d 812       0.878  49.459  76.710  0.00  0.00    -0.572 OA
ATOM     42  S   ASG d 812       1.887  49.440  75.732  0.00  0.00     0.252 S 
ATOM     43  C8  ASG d 812       6.788  44.915  79.869  0.00  0.00     0.117 C 
ATOM     44  O3  ASG d 812       3.542  45.966  77.191  0.00  0.00    -0.348 OA
ATOM     45  O1  ASG d 812       7.337  48.681  77.264  0.00  0.00    -0.369 OA
ATOM     46  C5  ASG d 812       4.875  48.215  74.576  0.00  0.00     0.181 C 
ATOM     47  O4  ASG d 812       3.067  48.471  76.262  0.00  0.00    -0.246 OA
ATOM     48  N   ASG d 812       6.157  46.078  77.924  0.00  0.00    -0.349 N 
ATOM     49  C3  ASG d 812       4.423  46.511  76.240  0.00  0.00     0.185 C 
ATOM     50  C6  ASG d 812       4.390  49.105  73.447  0.00  0.00     0.199 C 
ATOM     51  O5  ASG d 812       5.797  48.871  75.497  0.00  0.00    -0.349 OA
ATOM     52  C4  ASG d 812       3.750  47.558  75.395  0.00  0.00     0.207 C 
ATOM     53  O6  ASG d 812       5.422  49.797  72.769  0.00  0.00    -0.398 OA
ATOM     54  H   ASG d 812       6.757  49.214  77.830  0.00  0.00     0.212 HD
ATOM     55  H   ASG d 812       6.399  45.227  77.493  0.00  0.00     0.163 HD
ATOM     56  H   ASG d 812       5.872  50.394  73.388  0.00  0.00     0.209 HD
ATOM     57  C2  GAD d 809      -3.988  36.674  74.115  0.00  0.00     0.206 C 
ATOM     58  O5  GAD d 809      -4.272  37.413  76.375  0.00  0.00    -0.311 OA
ATOM     59  O2  GAD d 809      -3.321  36.986  72.869  0.00  0.00    -0.388 OA
ATOM     60  C3  GAD d 809      -5.481  36.636  73.850  0.00  0.00     0.177 C 
ATOM     61  O6A GAD d 809      -7.578  37.889  77.483  0.00  0.00    -0.642 OA
ATOM     62  C1  GAD d 809      -3.653  37.731  75.155  0.00  0.00     0.298 C 
ATOM     63  O3  GAD d 809      -5.853  35.346  73.336  0.00  0.00    -0.389 OA
ATOM     64  C5  GAD d 809      -5.662  37.275  76.311  0.00  0.00     0.147 C 
ATOM     65  O6B GAD d 809      -5.686  37.452  78.622  0.00  0.00    -0.642 OA
ATOM     66  C6  GAD d 809      -6.368  37.548  77.562  0.00  0.00     0.233 C 
ATOM     67  C4  GAD d 809      -6.224  36.923  75.163  0.00  0.00     0.051 C 
ATOM     68  H   GAD d 809      -3.628  37.847  72.545  0.00  0.00     0.210 HD
ATOM     69  H   GAD d 809      -5.623  34.661  73.983  0.00  0.00     0.210 HD
ENDROOT
TORSDOF 23
